
     RDKit          3D

 28 31  0  0  0  0  0  0  0  0999 V2000
  -19.1040  -23.1280   -8.1210 C   0  0  0  0  0  0  0  0  0  0  0  0
  -19.1890  -22.7420   -5.6030 C   0  0  0  0  0  0  0  0  0  0  0  0
  -15.1690  -23.9260   -7.5250 C   0  0  0  0  0  0  0  0  0  0  0  0
  -20.2200  -22.8500   -6.9080 S   0  0  0  0  0  0  0  0  0  0  0  0
  -21.0220  -22.9360   -3.7050 C   0  0  0  0  0  0  0  0  0  0  0  0
  -11.9870  -26.0170  -10.7770 C   0  0  0  0  0  0  0  0  0  0  0  0
  -17.7730  -23.2760   -7.3950 C   0  0  0  0  0  0  0  0  0  0  0  0
  -21.1070  -23.2090   -2.2840 C   0  0  0  0  0  0  0  0  0  0  0  0
  -22.4670  -22.7520   -1.7210 C   0  0  0  0  0  0  0  0  0  0  0  0
  -11.5240  -26.6370  -12.0200 C   0  0  0  0  0  0  0  0  0  0  0  0
  -10.4220  -25.9370  -12.8270 C   0  0  0  0  0  0  0  0  0  0  0  0
  -14.2530  -24.7750   -8.1930 C   0  0  0  0  0  0  0  0  0  0  0  0
  -21.0240  -21.3700   -3.8020 C   0  0  0  0  0  0  0  0  0  0  0  0
  -16.5080  -23.7490   -8.0560 C   0  0  0  0  0  0  0  0  0  0  0  0
  -15.8880  -25.3450   -9.7790 C   0  0  0  0  0  0  0  0  0  0  0  0
  -17.9310  -22.8640   -6.0000 C   0  0  0  0  0  0  0  0  0  0  0  0
   -8.8800  -26.5790  -14.4060 C   0  0  0  0  0  0  0  0  0  0  0  0
  -16.6710  -24.2610   -9.3670 C   0  0  0  0  0  0  0  0  0  0  0  0
  -11.9430  -24.5180  -10.6950 C   0  0  0  0  0  0  0  0  0  0  0  0
  -10.4380  -24.4310  -12.7150 C   0  0  0  0  0  0  0  0  0  0  0  0
  -10.4280  -26.4740  -14.1400 O   0  0  0  0  0  0  0  0  0  0  0  0
  -21.0490  -22.9450    0.2420 O   0  0  0  0  0  0  0  0  0  0  0  0
  -16.2460  -26.1510  -10.6110 F   0  0  0  0  0  0  0  0  0  0  0  0
  -14.5180  -25.5170   -9.3420 C   0  0  0  0  0  0  0  0  0  0  0  0
  -19.8470  -22.1940   -4.1950 C   0  0  0  0  0  0  0  0  0  0  0  0
  -13.5630  -26.6280  -10.2940 S   0  0  0  0  0  0  0  0  0  0  0  0
  -10.6300  -24.0270  -11.1980 C   0  0  0  0  0  0  0  0  0  0  0  0
  -22.3740  -22.5280   -0.2710 C   0  0  0  0  0  0  0  0  0  0  0  0
  1  7  1  0
  1  4  1  0
  2 16  1  0
  2 25  1  0
  4  2  1  0
  5  8  1  0
  6 19  1  0
  6 26  1  0
  7 14  1  0
  7 16  1  0
  8  9  1  0
  9 28  1  0
 10  6  1  0
 11 21  1  0
 11 20  1  0
 11 10  1  0
 12  3  2  0
 13  5  1  0
 14  3  1  0
 15 18  1  0
 15 24  2  0
 17 21  1  0
 18 14  2  0
 20 27  1  0
 23 15  1  0
 24 12  1  0
 25 13  1  0
 25  5  1  0
 26 24  1  0
 27 19  1  0
 28 22  1  0
M  END
$$$$

     RDKit          3D

 30 34  0  0  0  0  0  0  0  0999 V2000
  -11.2810  -25.3290  -11.2420 C   0  0  0  0  0  0  0  0  0  0  0  0
  -22.2550  -21.4150   -7.2750 C   0  0  0  0  0  0  0  0  0  0  0  0
  -18.6040  -24.8360   -8.7510 C   0  0  0  0  0  0  0  0  0  0  0  0
  -16.9950  -26.4140  -10.2100 C   0  0  0  0  0  0  0  0  0  0  0  0
  -17.5500  -27.2830  -10.6790 O   0  0  0  0  0  0  0  0  0  0  0  0
  -20.9610  -23.9500   -8.8400 C   0  0  0  0  0  0  0  0  0  0  0  0
  -14.8910  -25.1520   -9.7460 C   0  0  0  0  0  0  0  0  0  0  0  0
  -22.0620  -23.4160   -9.6180 C   0  0  0  0  0  0  0  0  0  0  0  0
  -23.2690  -21.7290   -8.2510 O   0  0  0  0  0  0  0  0  0  0  0  0
  -19.3000  -23.0750   -7.2840 C   0  0  0  0  0  0  0  0  0  0  0  0
  -21.5790  -22.5770   -6.6570 C   0  0  0  0  0  0  0  0  0  0  0  0
  -23.2950  -23.1600   -8.6940 C   0  0  0  0  0  0  0  0  0  0  0  0
  -16.4750  -22.1280   -4.8620 C   0  0  0  0  0  0  0  0  0  0  0  0
  -18.8880  -21.9040   -6.1060 S   0  0  0  0  0  0  0  0  0  0  0  0
  -15.7500  -23.8860   -7.0270 C   0  0  0  0  0  0  0  0  0  0  0  0
  -15.1720  -22.5600   -5.0750 C   0  0  0  0  0  0  0  0  0  0  0  0
  -10.3830  -25.7380  -10.1050 C   0  0  0  0  0  0  0  0  0  0  0  0
  -17.5810  -25.5680   -9.3010 N   0  0  0  0  0  0  0  0  0  0  0  0
  -13.2670  -26.8350  -11.4720 C   0  0  0  0  0  0  0  0  0  0  0  0
  -10.9550  -23.7830  -11.4410 C   0  0  0  0  0  0  0  0  0  0  0  0
  -13.4610  -24.9570  -10.0310 C   0  0  0  0  0  0  0  0  0  0  0  0
  -14.7510  -27.0940  -11.2520 C   0  0  0  0  0  0  0  0  0  0  0  0
  -18.3100  -23.8460   -7.6720 C   0  0  0  0  0  0  0  0  0  0  0  0
  -19.9120  -24.8040   -9.3460 N   0  0  0  0  0  0  0  0  0  0  0  0
  -14.7520  -23.3440   -6.1380 C   0  0  0  0  0  0  0  0  0  0  0  0
  -12.6870  -25.7380  -10.8450 C   0  0  0  0  0  0  0  0  0  0  0  0
  -17.0660  -23.5810   -6.8120 C   0  0  0  0  0  0  0  0  0  0  0  0
  -15.5110  -26.2200  -10.4100 C   0  0  0  0  0  0  0  0  0  0  0  0
  -17.3830  -22.6110   -5.8220 C   0  0  0  0  0  0  0  0  0  0  0  0
  -20.6020  -23.1710   -7.5830 N   0  0  0  0  0  0  0  0  0  0  0  0
  1 26  1  0
  1 17  1  0
  2 11  1  0
  3 23  1  0
  4 18  1  0
  5  4  2  0
  6 30  1  0
  8  6  1  0
  8 12  1  0
  9  2  1  0
 10 14  1  0
 12  9  1  0
 14 29  1  0
 15 27  2  0
 15 25  1  0
 16 13  1  0
 18  3  1  0
 19 22  2  0
 19 26  1  0
 20  1  1  0
 21  7  1  0
 22 28  1  0
 23 10  2  0
 23 27  1  0
 24  6  2  0
 24  3  2  0
 25 16  2  0
 26 21  2  0
 27 29  1  0
 28  4  1  0
 28  7  2  0
 29 13  2  0
 30 10  1  0
 30 11  1  0
M  END
$$$$

     RDKit          3D

 28 28  0  0  0  0  0  0  0  0999 V2000
  -17.2650  -25.0930   -9.0000 C   0  0  0  0  0  0  0  0  0  0  0  0
  -20.2500  -23.9710   -9.0430 C   0  0  0  0  0  0  0  0  0  0  0  0
  -12.4370  -25.8760   -8.8150 C   0  0  0  0  0  0  0  0  0  0  0  0
  -21.9200  -20.3130   -6.6410 C   0  0  0  0  0  0  0  0  0  0  0  0
  -23.6640  -21.2160   -9.1270 C   0  0  0  0  0  0  0  0  0  0  0  0
  -17.6940  -24.1750   -8.6790 C   0  0  0  0  0  0  0  0  0  0  0  0
  -20.7980  -21.6850   -8.1820 N   0  0  0  0  0  0  0  0  0  0  0  0
  -22.9510  -19.7600   -8.7070 O   0  0  0  0  0  0  0  0  0  0  0  0
  -12.1480  -28.1690   -9.4050 C   0  0  0  0  0  0  0  0  0  0  0  0
  -12.3360  -27.9710  -10.7030 O   0  0  0  0  0  0  0  0  0  0  0  0
  -10.9140  -28.9030   -8.8780 C   0  0  0  0  0  0  0  0  0  0  0  0
  -13.1660  -28.4720   -8.7050 O   0  0  0  0  0  0  0  0  0  0  0  0
  -20.6720  -23.3190  -12.0620 C   0  0  0  0  0  0  0  0  0  0  0  0
  -20.8680  -25.0580   -9.1370 O   0  0  0  0  0  0  0  0  0  0  0  0
  -18.9220  -23.5240   -6.1060 C   0  0  0  0  0  0  0  0  0  0  0  0
  -23.0670  -21.6930  -10.2950 O   0  0  0  0  0  0  0  0  0  0  0  0
  -21.8330  -21.4300   -7.4870 C   0  0  0  0  0  0  0  0  0  0  0  0
  -22.3490  -20.7540   -5.0900 C   0  0  0  0  0  0  0  0  0  0  0  0
  -18.9300  -23.5660   -8.3970 N   0  0  0  0  0  0  0  0  0  0  0  0
  -14.7400  -26.2640   -8.7150 C   0  0  0  0  0  0  0  0  0  0  0  0
  -13.6880  -26.3800   -8.1040 O   0  0  0  0  0  0  0  0  0  0  0  0
  -21.0070  -22.7120   -8.9970 C   0  0  0  0  0  0  0  0  0  0  0  0
  -18.1280  -23.3900   -7.3360 C   0  0  0  0  0  0  0  0  0  0  0  0
  -15.8280  -25.2040   -8.4240 C   0  0  0  0  0  0  0  0  0  0  0  0
  -11.8130  -26.7360   -8.5070 O   0  0  0  0  0  0  0  0  0  0  0  0
  -22.0550  -22.8980  -10.0510 C   0  0  0  0  0  0  0  0  0  0  0  0
  -12.0440  -25.3940   -9.7640 O   0  0  0  0  0  0  0  0  0  0  0  0
  -21.8640  -23.5440  -11.2320 O   0  0  0  0  0  0  0  0  0  0  0  0
  1 24  1  0
  2 19  1  0
  3 25  1  0
  3 21  1  0
  4 18  1  0
  5  8  1  0
  6  1  1  0
  6 19  1  0
  6 23  1  0
  7 17  1  0
  9 11  1  0
  9 12  1  0
  9 25  1  0
 10  9  1  0
 13 28  1  0
 14  2  2  0
 16 26  1  0
 16  5  1  0
 17  4  1  0
 19 23  1  0
 20 24  2  3
 20 21  1  0
 22  2  1  0
 22  7  1  0
 23 15  1  0
 26 28  1  0
 26 22  1  0
 27  3  2  0
M  END
$$$$

     RDKit          3D

  9  8  0  0  0  0  0  0  0  0999 V2000
  -16.8060  -25.1090   -8.2030 C   0  0  0  0  0  0  0  0  0  0  0  0
  -16.2000  -22.4610   -5.6970 O   0  0  0  0  0  0  0  0  0  0  0  0
  -14.7000  -23.6120   -7.4780 C   0  0  0  0  0  0  0  0  0  0  0  0
  -14.4460  -24.7140   -7.2860 O   0  0  0  0  0  0  0  0  0  0  0  0
  -16.9050  -26.0030   -9.1590 C   0  0  0  0  0  0  0  0  0  0  0  0
  -16.0270  -23.0750   -6.6840 C   0  0  0  0  0  0  0  0  0  0  0  0
  -15.4430  -27.1500  -10.1990 O   0  0  0  0  0  0  0  0  0  0  0  0
  -17.1060  -24.1860   -6.9650 C   0  0  0  0  0  0  0  0  0  0  0  0
  -16.0240  -26.0170  -10.2060 C   0  0  0  0  0  0  0  0  0  0  0  0
  1  8  2  0
  3  4  1  0
  3  6  1  0
  5  1  2  0
  6  2  2  0
  8  6  1  0
  9  7  1  0
  9  5  1  0
M  END
$$$$

     RDKit          3D

 29 30  0  0  0  0  0  0  0  0999 V2000
  -20.6590  -24.0040   -2.9360 C   0  0  0  0  0  0  0  0  0  0  0  0
  -12.4160  -26.0820  -13.2990 O   0  0  0  0  0  0  0  0  0  0  0  0
  -19.9290  -23.0800   -3.4430 C   0  0  0  0  0  0  0  0  0  0  0  0
  -14.4200  -26.9270  -12.0000 C   0  0  0  0  0  0  0  0  0  0  0  0
  -13.8290  -24.4670   -7.5410 O   0  0  0  0  0  0  0  0  0  0  0  0
  -21.3860  -21.8080    0.2590 C   0  0  0  0  0  0  0  0  0  0  0  0
  -13.7350  -24.3510  -11.0410 O   0  0  0  0  0  0  0  0  0  0  0  0
  -21.0470  -22.5080   -1.0250 N   0  0  0  0  0  0  0  0  0  0  0  0
  -20.9410  -21.8640   -3.4340 C   0  0  0  0  0  0  0  0  0  0  0  0
  -12.2520  -26.9260  -10.9890 C   0  0  0  0  0  0  0  0  0  0  0  0
  -16.1260  -23.5810   -6.1730 C   0  0  0  0  0  0  0  0  0  0  0  0
  -14.8650  -26.0060  -11.0300 O   0  0  0  0  0  0  0  0  0  0  0  0
  -18.2180  -23.8820   -5.3520 C   0  0  0  0  0  0  0  0  0  0  0  0
  -21.8750  -21.9660   -2.1740 C   0  0  0  0  0  0  0  0  0  0  0  0
  -19.2350  -23.3390   -4.5200 N   0  0  0  0  0  0  0  0  0  0  0  0
  -12.9980  -26.1810  -11.9260 C   0  0  0  0  0  0  0  0  0  0  0  0
  -10.8970  -26.4340  -11.0130 F   0  0  0  0  0  0  0  0  0  0  0  0
  -12.2590  -27.9960  -10.3840 F   0  0  0  0  0  0  0  0  0  0  0  0
  -20.6580  -23.9530   -1.1970 C   0  0  0  0  0  0  0  0  0  0  0  0
  -17.4110  -23.0640   -6.1380 C   0  0  0  0  0  0  0  0  0  0  0  0
  -14.7640  -24.5350   -7.9990 C   0  0  0  0  0  0  0  0  0  0  0  0
  -15.0900  -27.1570   -9.4960 C   0  0  0  0  0  0  0  0  0  0  0  0
  -16.0450  -24.1950   -7.2930 N   0  0  0  0  0  0  0  0  0  0  0  0
  -13.0080  -26.1090   -9.4720 C   0  0  0  0  0  0  0  0  0  0  0  0
  -14.3960  -26.0050   -9.7540 C   0  0  0  0  0  0  0  0  0  0  0  0
  -17.3840  -24.1830   -4.1650 O   0  0  0  0  0  0  0  0  0  0  0  0
  -15.0930  -23.3050   -5.4070 O   0  0  0  0  0  0  0  0  0  0  0  0
  -14.8380  -24.8130   -9.2290 N   0  0  0  0  0  0  0  0  0  0  0  0
  -12.7140  -24.8730  -11.1370 O   0  0  0  0  0  0  0  0  0  0  0  0
  1 19  1  0
  3  9  1  0
  3  1  1  0
  4 16  1  0
  4 12  1  0
  8  6  1  0
  9 14  1  0
 10 18  1  0
 10 24  1  0
 11 20  1  0
 11 27  2  0
 12 25  1  0
 13 15  1  0
 13 26  1  0
 14  8  1  0
 15  3  1  0
 16  2  1  0
 16 29  1  0
 16 10  1  0
 17 10  1  0
 19  8  1  0
 20 13  1  0
 21  5  2  0
 21 23  1  0
 23 11  1  0
 25 22  1  0
 25 24  1  0
 25 28  1  0
 28 21  1  0
 29  7  1  0
M  END
$$$$

     RDKit          3D

  4  3  0  0  0  0  0  0  0  0999 V2000
  -16.4050  -20.1340   -9.5170 O   0  0  0  0  0  0  0  0  0  0  0  0
  -16.3090  -20.5220   -9.4930 O   0  0  0  0  0  0  0  0  0  0  0  0
  -16.7370  -20.3880   -9.5270 O   0  0  0  0  0  0  0  0  0  0  0  0
  -16.5250  -20.3430   -9.7800 Br  0  0  0  0  0  0  0  0  0  0  0  0
  1  2  1  0
  3  1  1  0
  4  2  1  0
M  END
$$$$

     RDKit          3D

 11 12  0  0  0  0  0  0  0  0999 V2000
  -17.5770  -23.4750   -7.3360 N   0  0  0  0  0  0  0  0  0  0  0  0
  -16.3430  -22.2730   -5.4850 O   0  0  0  0  0  0  0  0  0  0  0  0
  -17.1310  -25.2990   -8.5830 C   0  0  0  0  0  0  0  0  0  0  0  0
  -18.7740  -22.6710   -4.7130 S   0  0  0  0  0  0  0  0  0  0  0  0
  -17.5450  -23.5780   -3.5890 C   0  0  0  0  0  0  0  0  0  0  0  0
  -20.0940  -22.0980   -7.5400 S   0  0  0  0  0  0  0  0  0  0  0  0
  -16.5590  -24.2620   -7.5390 C   0  0  0  0  0  0  0  0  0  0  0  0
  -16.1720  -23.0260   -4.2110 C   0  0  0  0  0  0  0  0  0  0  0  0
  -17.6300  -22.7960   -6.1110 C   0  0  0  0  0  0  0  0  0  0  0  0
  -15.9870  -26.1430   -9.1870 C   0  0  0  0  0  0  0  0  0  0  0  0
  -18.7480  -21.6390   -6.2310 C   0  0  0  0  0  0  0  0  0  0  0  0
  2  8  1  0
  3  7  1  0
  4  5  1  0
  7  1  1  0
  8  5  1  0
  9  1  1  0
  9  2  1  0
  9  4  1  0
 10  3  1  0
 11  6  1  0
 11  9  1  0
 11  4  1  0
M  END
$$$$

     RDKit          3D

 56 60  0  0  0  0  0  0  0  0999 V2000
  -13.8970  -25.1730   -8.6870 C   0  0  0  0  0  0  0  0  0  0  0  0
  -15.6410  -27.9780  -11.5160 C   0  0  0  0  0  0  0  0  0  0  0  0
  -16.4840  -14.5150    0.3730 O   0  0  0  0  0  0  0  0  0  0  0  0
  -11.5710  -25.6990   -9.2440 C   0  0  0  0  0  0  0  0  0  0  0  0
  -18.7740  -30.5190  -14.6110 O   0  0  0  0  0  0  0  0  0  0  0  0
  -17.0030  -28.7810  -13.5140 C   0  0  0  0  0  0  0  0  0  0  0  0
  -13.3640  -24.2110   -7.7280 S   0  0  0  0  0  0  0  0  0  0  0  0
  -15.6090  -25.3060   -8.7780 C   0  0  0  0  0  0  0  0  0  0  0  0
  -14.7780  -22.2090   -6.5480 C   0  0  0  0  0  0  0  0  0  0  0  0
  -12.2760  -20.4020   -2.9090 C   0  0  0  0  0  0  0  0  0  0  0  0
  -14.0240  -22.7240   -5.3980 O   0  0  0  0  0  0  0  0  0  0  0  0
  -16.1670  -18.8220   -4.2300 C   0  0  0  0  0  0  0  0  0  0  0  0
  -15.8870  -15.3370   -0.3010 O   0  0  0  0  0  0  0  0  0  0  0  0
  -17.1460  -26.7570  -10.5030 C   0  0  0  0  0  0  0  0  0  0  0  0
  -15.9890  -21.5810   -2.5690 C   0  0  0  0  0  0  0  0  0  0  0  0
  -15.3870  -19.3090   -1.8720 C   0  0  0  0  0  0  0  0  0  0  0  0
  -17.0960  -23.7890   -7.8210 C   0  0  0  0  0  0  0  0  0  0  0  0
  -19.5650  -31.9160  -17.8540 O   0  0  0  0  0  0  0  0  0  0  0  0
  -18.6800  -31.7580  -21.0020 O   0  0  0  0  0  0  0  0  0  0  0  0
  -18.6140  -31.4270  -18.5860 C   0  0  0  0  0  0  0  0  0  0  0  0
  -17.0650  -24.8430    0.4900 C   0  0  0  0  0  0  0  0  0  0  0  0
  -19.8810  -31.4260  -16.5970 C   0  0  0  0  0  0  0  0  0  0  0  0
  -17.3940  -21.3190   -2.4160 N   0  0  0  0  0  0  0  0  0  0  0  0
  -14.7900  -23.4300   -7.4890 C   0  0  0  0  0  0  0  0  0  0  0  0
  -16.0980  -26.3130   -9.5160 O   0  0  0  0  0  0  0  0  0  0  0  0
  -15.8910  -24.0310   -8.0600 C   0  0  0  0  0  0  0  0  0  0  0  0
  -18.9270  -29.1790  -15.1550 C   0  0  0  0  0  0  0  0  0  0  0  0
  -15.5020  -20.1090   -4.5000 C   0  0  0  0  0  0  0  0  0  0  0  0
  -16.7340  -23.3070   -1.5160 C   0  0  0  0  0  0  0  0  0  0  0  0
  -17.9600  -22.3630   -1.6620 C   0  0  0  0  0  0  0  0  0  0  0  0
  -16.1790  -16.8990   -2.0950 C   0  0  0  0  0  0  0  0  0  0  0  0
  -19.2890  -30.9540  -19.7700 P   0  0  0  0  0  0  0  0  0  0  0  0
  -14.6250  -17.3680   -0.2980 C   0  0  0  0  0  0  0  0  0  0  0  0
  -16.0600  -16.6960   -0.6510 C   0  0  0  0  0  0  0  0  0  0  0  0
  -13.0100  -25.9510   -9.6030 C   0  0  0  0  0  0  0  0  0  0  0  0
  -18.2600  -26.7760  -13.0860 C   0  0  0  0  0  0  0  0  0  0  0  0
  -15.8580  -22.7950   -2.3980 N   0  0  0  0  0  0  0  0  0  0  0  0
  -18.4490  -28.8960  -16.3570 O   0  0  0  0  0  0  0  0  0  0  0  0
  -18.4190  -31.2060  -15.8990 C   0  0  0  0  0  0  0  0  0  0  0  0
  -18.1060  -25.6660   -9.6820 O   0  0  0  0  0  0  0  0  0  0  0  0
  -14.4300  -27.4110  -11.2670 C   0  0  0  0  0  0  0  0  0  0  0  0
  -15.8920  -28.2680  -12.7180 C   0  0  0  0  0  0  0  0  0  0  0  0
  -16.3210  -23.7580   -0.1460 O   0  0  0  0  0  0  0  0  0  0  0  0
  -18.3150  -27.9530  -14.0610 C   0  0  0  0  0  0  0  0  0  0  0  0
  -16.0110  -18.3520   -2.7730 C   0  0  0  0  0  0  0  0  0  0  0  0
  -19.1400  -29.3720  -19.1720 O   0  0  0  0  0  0  0  0  0  0  0  0
  -15.0980  -16.2740   -2.8760 O   0  0  0  0  0  0  0  0  0  0  0  0
  -18.2640  -26.5600  -11.7420 C   0  0  0  0  0  0  0  0  0  0  0  0
  -20.7700  -30.9410  -20.0620 O   0  0  0  0  0  0  0  0  0  0  0  0
  -14.2720  -18.5610   -1.0420 C   0  0  0  0  0  0  0  0  0  0  0  0
  -13.0890  -21.8530   -4.5960 C   0  0  0  0  0  0  0  0  0  0  0  0
  -14.5940  -19.9370   -5.5600 O   0  0  0  0  0  0  0  0  0  0  0  0
  -13.5600  -26.8810  -10.4380 C   0  0  0  0  0  0  0  0  0  0  0  0
  -14.9130  -20.5790   -3.0370 C   0  0  0  0  0  0  0  0  0  0  0  0
  -17.4130  -17.1040    0.0530 C   0  0  0  0  0  0  0  0  0  0  0  0
  -13.5680  -21.0280   -3.3600 C   0  0  0  0  0  0  0  0  0  0  0  0
  1 35  1  0
  1  7  1  0
  2 41  1  0
  6 42  1  0
  7 24  1  0
  8 25  1  0
  8  1  1  0
  8 26  1  0
  9 11  1  0
 11 51  1  0
 12 45  2  0
 13  3  1  0
 14 40  1  0
 14 25  1  0
 15 23  2  0
 15 37  2  0
 16 50  1  0
 18 22  1  0
 19 32  2  0
 20 18  1  0
 22 39  1  0
 23 30  1  0
 24  9  1  0
 26 17  2  0
 26 24  1  0
 27 38  1  0
 27  5  1  0
 28 52  1  0
 28 12  1  0
 28 54  1  0
 29 43  1  0
 30 29  1  0
 31 47  1  0
 31 34  1  0
 32 46  1  0
 32 20  1  0
 34 13  1  0
 34 33  1  0
 34 55  1  0
 35  4  1  0
 36 48  1  0
 37 29  1  0
 39  5  1  0
 41 53  2  0
 42  2  2  3
 43 21  1  0
 44 27  1  0
 44  6  1  0
 44 36  1  0
 45 31  1  0
 45 16  1  0
 48 14  1  0
 49 32  1  0
 50 33  2  0
 51 56  1  0
 53 35  2  0
 54 56  1  0
 54 15  1  0
 54 16  1  0
 56 10  1  0
M  END
$$$$

     RDKit          3D

 36 38  0  0  0  0  0  0  0  0999 V2000
  -10.3150  -22.4050  -12.4800 C   0  0  0  0  0  0  0  0  0  0  0  0
  -13.0870  -24.0900   -7.3090 C   0  0  0  0  0  0  0  0  0  0  0  0
  -20.3720  -23.5010   -5.7830 O   0  0  0  0  0  0  0  0  0  0  0  0
  -11.5330  -23.9110  -10.9610 N   0  0  0  0  0  0  0  0  0  0  0  0
  -16.9370  -23.3230   -7.8810 C   0  0  0  0  0  0  0  0  0  0  0  0
  -12.4990  -24.1170   -9.8910 C   0  0  0  0  0  0  0  0  0  0  0  0
  -14.5890  -23.2440   -6.8720 C   0  0  0  0  0  0  0  0  0  0  0  0
   -8.6310  -23.2810   -8.7460 C   0  0  0  0  0  0  0  0  0  0  0  0
   -6.8880  -26.9040  -12.2300 C   0  0  0  0  0  0  0  0  0  0  0  0
  -12.6270  -24.0730   -6.1500 O   0  0  0  0  0  0  0  0  0  0  0  0
  -13.9950  -24.0210   -9.8550 C   0  0  0  0  0  0  0  0  0  0  0  0
   -8.2240  -26.7290  -12.9030 C   0  0  0  0  0  0  0  0  0  0  0  0
  -23.3900  -20.5790   -7.9940 C   0  0  0  0  0  0  0  0  0  0  0  0
  -22.0610  -19.3610   -6.2430 C   0  0  0  0  0  0  0  0  0  0  0  0
  -16.9840  -22.2420   -3.7730 C   0  0  0  0  0  0  0  0  0  0  0  0
  -14.2230  -22.1280   -5.9770 C   0  0  0  0  0  0  0  0  0  0  0  0
  -23.1900  -19.3790   -7.2380 C   0  0  0  0  0  0  0  0  0  0  0  0
   -9.2590  -25.3560  -11.2190 C   0  0  0  0  0  0  0  0  0  0  0  0
   -9.1160  -23.8550  -10.8950 C   0  0  0  0  0  0  0  0  0  0  0  0
  -17.6160  -22.8570   -6.6570 N   0  0  0  0  0  0  0  0  0  0  0  0
  -21.3260  -21.5980   -6.9900 C   0  0  0  0  0  0  0  0  0  0  0  0
  -18.9080  -22.0170   -6.8900 C   0  0  0  0  0  0  0  0  0  0  0  0
  -21.2360  -20.4840   -6.1530 C   0  0  0  0  0  0  0  0  0  0  0  0
   -6.7270  -23.8340  -10.0810 C   0  0  0  0  0  0  0  0  0  0  0  0
  -20.2600  -22.6580   -6.9260 C   0  0  0  0  0  0  0  0  0  0  0  0
   -8.1480  -23.2420  -10.1810 C   0  0  0  0  0  0  0  0  0  0  0  0
   -8.7600  -25.4740  -12.5170 O   0  0  0  0  0  0  0  0  0  0  0  0
  -10.1070  -26.1710  -11.0280 O   0  0  0  0  0  0  0  0  0  0  0  0
  -15.5650  -22.4210   -5.8020 C   0  0  0  0  0  0  0  0  0  0  0  0
  -15.8980  -22.9290   -4.4720 O   0  0  0  0  0  0  0  0  0  0  0  0
  -22.4230  -21.5920   -7.9300 C   0  0  0  0  0  0  0  0  0  0  0  0
  -12.0570  -23.7690   -8.3360 C   0  0  0  0  0  0  0  0  0  0  0  0
  -10.4300  -23.0440  -11.1230 C   0  0  0  0  0  0  0  0  0  0  0  0
  -15.8010  -23.6480   -8.0810 C   0  0  0  0  0  0  0  0  0  0  0  0
  -17.5810  -23.4280   -8.8430 O   0  0  0  0  0  0  0  0  0  0  0  0
  -15.0040  -24.4760   -9.0640 C   0  0  0  0  0  0  0  0  0  0  0  0
  2  7  1  0
  2 10  1  0
  5 20  1  0
  6  4  1  0
  6 11  1  0
  6 32  1  0
  7 16  1  0
  7 29  1  0
 11 36  1  0
 12 27  1  0
 12  9  1  0
 13 31  2  0
 13 17  1  0
 14 23  1  0
 16 29  1  0
 17 14  2  0
 18 28  2  0
 19 18  1  0
 19 26  1  0
 21 25  1  0
 21 23  2  0
 22 20  1  0
 25 22  1  0
 25  3  1  0
 26 24  1  0
 26  8  1  0
 27 18  1  0
 29 30  1  0
 30 15  1  0
 31 21  1  0
 32  2  1  0
 33  1  1  0
 33  4  1  0
 33 19  1  0
 34  5  1  0
 34  7  1  0
 35  5  2  0
 36 34  1  0
M  END
$$$$

     RDKit          3D

 30 32  0  0  0  0  0  0  0  0999 V2000
  -19.0100  -26.4770  -11.2660 C   0  0  0  0  0  0  0  0  0  0  0  0
  -11.7330  -26.3170   -8.8550 C   0  0  0  0  0  0  0  0  0  0  0  0
  -18.0510  -26.4820  -13.8180 O   0  0  0  0  0  0  0  0  0  0  0  0
  -15.5020  -21.1420   -3.9010 C   0  0  0  0  0  0  0  0  0  0  0  0
  -20.1750  -25.9930  -12.4180 C   0  0  0  0  0  0  0  0  0  0  0  0
  -19.4010  -26.1270  -13.7330 C   0  0  0  0  0  0  0  0  0  0  0  0
  -19.0470  -21.7510   -7.3580 C   0  0  0  0  0  0  0  0  0  0  0  0
  -18.9740  -23.9290   -9.7280 C   0  0  0  0  0  0  0  0  0  0  0  0
  -19.0440  -20.9380   -6.2600 C   0  0  0  0  0  0  0  0  0  0  0  0
  -17.9330  -21.0270   -5.2410 C   0  0  0  0  0  0  0  0  0  0  0  0
  -16.0050  -22.5050   -4.1270 C   0  0  0  0  0  0  0  0  0  0  0  0
  -15.7160  -24.9890   -8.7500 C   0  0  0  0  0  0  0  0  0  0  0  0
  -14.1450  -26.7500   -9.1650 C   0  0  0  0  0  0  0  0  0  0  0  0
  -11.6060  -27.6950   -9.0530 O   0  0  0  0  0  0  0  0  0  0  0  0
  -19.8020  -25.5520  -14.9380 O   0  0  0  0  0  0  0  0  0  0  0  0
  -17.0300  -24.7890   -8.5400 O   0  0  0  0  0  0  0  0  0  0  0  0
  -17.8080  -23.5660   -8.8060 C   0  0  0  0  0  0  0  0  0  0  0  0
  -15.3030  -20.6760   -5.2560 O   0  0  0  0  0  0  0  0  0  0  0  0
  -14.8400  -23.1400   -4.6960 C   0  0  0  0  0  0  0  0  0  0  0  0
  -13.1780  -25.8420   -9.0650 C   0  0  0  0  0  0  0  0  0  0  0  0
  -17.2060  -23.0660   -6.3240 N   0  0  0  0  0  0  0  0  0  0  0  0
  -14.6910  -24.0680   -8.5730 C   0  0  0  0  0  0  0  0  0  0  0  0
  -14.2270  -21.4470   -3.1080 C   0  0  0  0  0  0  0  0  0  0  0  0
  -13.6360  -22.3740   -4.1620 C   0  0  0  0  0  0  0  0  0  0  0  0
  -18.6910  -21.2350   -3.9340 O   0  0  0  0  0  0  0  0  0  0  0  0
  -18.0410  -22.7470   -7.4980 C   0  0  0  0  0  0  0  0  0  0  0  0
  -13.3580  -24.5170   -8.6710 C   0  0  0  0  0  0  0  0  0  0  0  0
  -16.9780  -22.2060   -5.2660 C   0  0  0  0  0  0  0  0  0  0  0  0
  -19.0350  -25.3090  -10.1460 C   0  0  0  0  0  0  0  0  0  0  0  0
  -15.4980  -26.3530   -9.0030 C   0  0  0  0  0  0  0  0  0  0  0  0
  1 29  1  0
  3  6  1  0
  4 18  1  0
  4 23  1  0
  5  1  1  0
  6  5  1  0
  7  9  2  0
  9 10  1  0
 10 25  1  0
 11 28  1  0
 11  4  1  0
 12 22  1  0
 12 16  1  0
 13 20  2  0
 13 30  1  0
 14  2  1  0
 15  6  2  0
 17  8  1  0
 17 16  1  0
 17 26  1  0
 19 24  1  0
 19 11  1  0
 20  2  1  0
 20 27  1  0
 21 28  2  0
 24 23  1  0
 26  7  1  0
 26 21  2  0
 27 22  2  0
 28 10  1  0
 29  8  1  0
 30 12  2  0
M  END
$$$$

     RDKit          3D

 62 62  0  0  0  0  0  0  0  0999 V2000
   -5.9670  -22.6820  -10.7500 C   0  0  0  0  0  0  0  0  0  0  0  0
  -17.7820  -22.3990   -5.6670 O   0  0  0  0  0  0  0  0  0  0  0  0
  -21.3190  -21.9660   -3.3870 C   0  0  0  0  0  0  0  0  0  0  0  0
  -22.4030  -21.8720   -4.2780 C   0  0  0  0  0  0  0  0  0  0  0  0
  -24.3370  -17.7780   -7.1750 C   0  0  0  0  0  0  0  0  0  0  0  0
  -22.3810  -21.7340   -5.7260 C   0  0  0  0  0  0  0  0  0  0  0  0
  -10.7050  -24.9740  -12.9750 P   0  0  0  0  0  0  0  0  0  0  0  0
  -13.8110  -27.3530  -15.8230 O   0  0  0  0  0  0  0  0  0  0  0  0
  -15.7420  -26.4050  -11.2900 O   0  0  0  0  0  0  0  0  0  0  0  0
  -13.0800  -26.5820  -11.2500 O   0  0  0  0  0  0  0  0  0  0  0  0
  -17.5760  -24.7290   -2.3820 C   0  0  0  0  0  0  0  0  0  0  0  0
  -12.9100  -26.6570  -13.5820 N   0  0  0  0  0  0  0  0  0  0  0  0
  -13.0080  -29.1010  -14.1960 O   0  0  0  0  0  0  0  0  0  0  0  0
  -18.7420  -27.2470  -14.5910 C   0  0  0  0  0  0  0  0  0  0  0  0
  -20.6090  -26.3530  -12.2880 C   0  0  0  0  0  0  0  0  0  0  0  0
  -17.2330  -23.5550   -3.3780 C   0  0  0  0  0  0  0  0  0  0  0  0
   -9.8410  -23.7110  -13.7360 C   0  0  0  0  0  0  0  0  0  0  0  0
  -16.3610  -27.4250  -14.3710 C   0  0  0  0  0  0  0  0  0  0  0  0
  -17.9110  -22.7640   -4.5980 C   0  0  0  0  0  0  0  0  0  0  0  0
  -15.3730  -24.1700   -1.2880 C   0  0  0  0  0  0  0  0  0  0  0  0
  -19.3730  -28.0280  -13.4900 C   0  0  0  0  0  0  0  0  0  0  0  0
  -22.0290  -23.6350   -7.5570 C   0  0  0  0  0  0  0  0  0  0  0  0
  -16.8540  -24.5410   -1.0180 C   0  0  0  0  0  0  0  0  0  0  0  0
  -26.2400  -15.1460   -7.6400 C   0  0  0  0  0  0  0  0  0  0  0  0
  -22.1890  -23.5620   -8.7900 C   0  0  0  0  0  0  0  0  0  0  0  0
  -25.2910  -17.2570   -7.9440 O   0  0  0  0  0  0  0  0  0  0  0  0
  -17.5180  -26.6130  -14.0620 O   0  0  0  0  0  0  0  0  0  0  0  0
  -22.8310  -19.5720   -6.5310 O   0  0  0  0  0  0  0  0  0  0  0  0
  -26.1930  -16.5250   -7.2570 C   0  0  0  0  0  0  0  0  0  0  0  0
  -27.0350  -14.2430   -6.9530 O   0  0  0  0  0  0  0  0  0  0  0  0
  -11.9720  -25.4810  -13.9990 C   0  0  0  0  0  0  0  0  0  0  0  0
  -14.4940  -26.3180   -0.2450 C   0  0  0  0  0  0  0  0  0  0  0  0
  -20.6030  -25.5180  -11.1110 C   0  0  0  0  0  0  0  0  0  0  0  0
  -19.3770  -21.5210   -2.3990 O   0  0  0  0  0  0  0  0  0  0  0  0
  -23.1930  -20.9600   -6.3800 C   0  0  0  0  0  0  0  0  0  0  0  0
   -8.7780  -23.1180  -11.6530 O   0  0  0  0  0  0  0  0  0  0  0  0
  -24.2020  -17.0860   -5.9530 O   0  0  0  0  0  0  0  0  0  0  0  0
  -16.9910  -25.6240   -0.2470 O   0  0  0  0  0  0  0  0  0  0  0  0
  -21.8730  -23.7550   -9.9860 C   0  0  0  0  0  0  0  0  0  0  0  0
  -21.5990  -22.6410   -6.4600 C   0  0  0  0  0  0  0  0  0  0  0  0
  -19.3690  -27.1030  -12.3730 O   0  0  0  0  0  0  0  0  0  0  0  0
  -20.2390  -22.8950   -5.8950 C   0  0  0  0  0  0  0  0  0  0  0  0
   -6.6990  -22.9810  -13.2030 C   0  0  0  0  0  0  0  0  0  0  0  0
  -23.4570  -18.9070   -7.6530 C   0  0  0  0  0  0  0  0  0  0  0  0
   -9.6140  -23.4790  -15.1220 O   0  0  0  0  0  0  0  0  0  0  0  0
  -13.4690  -26.5330    0.9050 C   0  0  0  0  0  0  0  0  0  0  0  0
   -8.5350  -21.5370  -13.0380 C   0  0  0  0  0  0  0  0  0  0  0  0
  -15.0150  -26.8530  -12.3670 C   0  0  0  0  0  0  0  0  0  0  0  0
  -19.4530  -22.4390   -4.7950 C   0  0  0  0  0  0  0  0  0  0  0  0
   -4.5190  -22.2820  -12.3200 O   0  0  0  0  0  0  0  0  0  0  0  0
  -11.6690  -24.1550  -12.0340 O   0  0  0  0  0  0  0  0  0  0  0  0
  -11.0350  -21.2200  -12.5170 C   0  0  0  0  0  0  0  0  0  0  0  0
  -14.3200  -24.8920   -0.6400 C   0  0  0  0  0  0  0  0  0  0  0  0
  -13.5370  -26.6760  -12.3850 C   0  0  0  0  0  0  0  0  0  0  0  0
   -8.3280  -23.0500  -12.9340 C   0  0  0  0  0  0  0  0  0  0  0  0
  -13.2460  -27.6730  -14.6450 S   0  0  0  0  0  0  0  0  0  0  0  0
  -23.9300  -21.3240   -7.3030 O   0  0  0  0  0  0  0  0  0  0  0  0
   -9.9270  -21.1940  -13.6030 N   0  0  0  0  0  0  0  0  0  0  0  0
  -19.9410  -22.1440   -3.4330 C   0  0  0  0  0  0  0  0  0  0  0  0
  -22.0440  -24.8940  -10.8300 C   0  0  0  0  0  0  0  0  0  0  0  0
  -15.5570  -27.9710  -13.2610 C   0  0  0  0  0  0  0  0  0  0  0  0
   -6.0270  -23.1510  -12.0670 C   0  0  0  0  0  0  0  0  0  0  0  0
  2 19  2  0
  4  3  2  0
  5 37  2  0
  6  4  1  0
  7 51  1  0
 11 23  1  0
 12 54  1  0
 14 27  1  0
 14 21  1  0
 15 33  1  0
 16 11  1  0
 17 45  1  0
 17  7  1  0
 17 55  1  0
 18 27  1  0
 18 61  1  0
 19 16  1  0
 20 23  1  0
 20 53  1  0
 21 41  1  0
 22 40  1  0
 23 38  1  0
 24 29  1  0
 24 30  1  0
 25 22  1  0
 26 29  1  0
 26  5  1  0
 28 35  1  0
 31 12  1  0
 31  7  1  0
 32 46  1  0
 33 60  1  0
 35  6  1  0
 39 25  1  0
 40 42  1  0
 40  6  2  0
 41 15  1  0
 42 49  2  0
 43 55  1  0
 43 62  1  0
 44  5  1  0
 44 28  1  0
 47 55  1  0
 48  9  1  0
 49 19  1  0
 49 59  1  0
 50 62  1  0
 53 32  1  0
 54 48  1  0
 54 10  2  0
 55 36  1  0
 56  8  2  0
 56 13  1  0
 56 12  1  0
 57 35  2  0
 58 47  1  0
 58 52  1  0
 59  3  1  0
 59 34  1  0
 60 39  1  0
 61 48  1  0
 62  1  1  0
M  END
$$$$

     RDKit          3D

 11 12  0  0  0  0  0  0  0  0999 V2000
  -16.3450  -22.7780   -6.5480 C   0  0  0  0  0  0  0  0  0  0  0  0
  -19.6400  -22.3520   -6.8050 N   0  0  0  0  0  0  0  0  0  0  0  0
  -15.5000  -23.5000   -7.2860 C   0  0  0  0  0  0  0  0  0  0  0  0
  -17.6100  -22.8600   -6.8600 C   0  0  0  0  0  0  0  0  0  0  0  0
  -19.4730  -22.7690   -7.9690 C   0  0  0  0  0  0  0  0  0  0  0  0
  -18.1800  -23.4540   -7.8320 C   0  0  0  0  0  0  0  0  0  0  0  0
  -13.3340  -24.3150   -8.0830 C   0  0  0  0  0  0  0  0  0  0  0  0
  -15.8810  -24.4880   -7.3120 C   0  0  0  0  0  0  0  0  0  0  0  0
  -14.2650  -23.4630   -7.3920 O   0  0  0  0  0  0  0  0  0  0  0  0
  -17.2450  -24.5680   -7.6520 C   0  0  0  0  0  0  0  0  0  0  0  0
  -18.5790  -22.8770   -6.1110 C   0  0  0  0  0  0  0  0  0  0  0  0
  2 11  1  0
  3  9  1  0
  3  1  1  0
  4  1  1  0
  4 11  1  0
  5  2  1  0
  6  5  1  0
  6 10  1  0
  6  4  1  0
  7  9  1  0
  8  3  1  0
 10  8  1  0
M  END
$$$$

     RDKit          3D

 21 23  0  0  0  0  0  0  0  0999 V2000
  -16.1950  -23.5910   -7.3870 C   0  0  0  0  0  0  0  0  0  0  0  0
  -23.0240  -21.3030   -9.0370 C   0  0  0  0  0  0  0  0  0  0  0  0
  -15.1740  -24.5240   -7.9780 C   0  0  0  0  0  0  0  0  0  0  0  0
  -19.7650  -22.4990   -8.0420 C   0  0  0  0  0  0  0  0  0  0  0  0
  -19.2370  -24.4100   -9.5040 N   0  0  0  0  0  0  0  0  0  0  0  0
  -17.2190  -26.8160  -11.3290 O   0  0  0  0  0  0  0  0  0  0  0  0
  -16.1620  -28.8270  -10.5620 C   0  0  0  0  0  0  0  0  0  0  0  0
  -18.5240  -22.6880   -7.4930 C   0  0  0  0  0  0  0  0  0  0  0  0
  -21.5560  -22.6750  -11.0510 C   0  0  0  0  0  0  0  0  0  0  0  0
  -23.3360  -19.7210   -9.4890 C   0  0  0  0  0  0  0  0  0  0  0  0
  -16.5880  -27.5380  -10.0750 C   0  0  0  0  0  0  0  0  0  0  0  0
  -15.9000  -25.5780   -8.8950 C   0  0  0  0  0  0  0  0  0  0  0  0
  -23.5410  -19.4640  -11.6120 C   0  0  0  0  0  0  0  0  0  0  0  0
  -23.9950  -19.4750  -10.6340 N   0  0  0  0  0  0  0  0  0  0  0  0
  -21.4190  -23.4020   -9.7480 C   0  0  0  0  0  0  0  0  0  0  0  0
  -18.0610  -24.5400   -8.8910 C   0  0  0  0  0  0  0  0  0  0  0  0
  -21.7460  -21.9490   -9.6950 C   0  0  0  0  0  0  0  0  0  0  0  0
  -15.3640  -26.7180   -9.6010 C   0  0  0  0  0  0  0  0  0  0  0  0
  -19.9860  -23.1700   -9.3280 C   0  0  0  0  0  0  0  0  0  0  0  0
  -17.3110  -25.5480   -9.1140 N   0  0  0  0  0  0  0  0  0  0  0  0
  -17.4920  -23.5690   -7.8920 C   0  0  0  0  0  0  0  0  0  0  0  0
  3  1  1  0
  4  8  2  0
  5 19  1  0
  5 16  2  0
  6 11  1  0
  9 17  1  0
 10  2  1  0
 11  7  1  0
 11 18  1  0
 12  3  1  0
 13 14  2  0
 14 10  1  0
 15  9  1  0
 15 17  1  0
 15 19  1  0
 16 21  1  0
 17  2  1  0
 18 12  1  0
 19  4  1  0
 20 12  2  0
 20 16  2  0
 21  8  1  0
 21  1  2  0
M  END
$$$$

     RDKit          3D

 27 29  0  0  0  0  0  0  0  0999 V2000
  -16.0620  -28.1920  -10.8470 F   0  0  0  0  0  0  0  0  0  0  0  0
  -14.6810  -23.2890   -3.9170 O   0  0  0  0  0  0  0  0  0  0  0  0
  -15.7580  -26.2070   -9.3840 C   0  0  0  0  0  0  0  0  0  0  0  0
  -21.4000  -21.3620   -7.7840 S   0  0  0  0  0  0  0  0  0  0  0  0
  -14.9360  -22.8500   -2.6290 C   0  0  0  0  0  0  0  0  0  0  0  0
  -18.5380  -23.8420   -8.4260 C   0  0  0  0  0  0  0  0  0  0  0  0
  -16.3990  -25.1450   -8.7210 C   0  0  0  0  0  0  0  0  0  0  0  0
  -15.0770  -23.2110   -6.1880 C   0  0  0  0  0  0  0  0  0  0  0  0
  -15.1380  -22.4630   -4.9490 C   0  0  0  0  0  0  0  0  0  0  0  0
  -16.0830  -23.6670   -6.8590 C   0  0  0  0  0  0  0  0  0  0  0  0
  -14.2520  -24.4330   -7.8510 C   0  0  0  0  0  0  0  0  0  0  0  0
  -19.0190  -21.7890   -7.2350 C   0  0  0  0  0  0  0  0  0  0  0  0
  -17.7680  -24.9010   -8.9930 C   0  0  0  0  0  0  0  0  0  0  0  0
  -18.4330  -25.8240   -9.8340 C   0  0  0  0  0  0  0  0  0  0  0  0
  -21.4320  -23.0570  -10.0820 S   0  0  0  0  0  0  0  0  0  0  0  0
  -22.2270  -22.0180  -10.5030 O   0  0  0  0  0  0  0  0  0  0  0  0
  -12.6090  -23.4160   -6.3540 N   0  0  0  0  0  0  0  0  0  0  0  0
  -16.4970  -27.0770  -10.2180 C   0  0  0  0  0  0  0  0  0  0  0  0
  -16.3000  -23.5490   -2.1900 C   0  0  0  0  0  0  0  0  0  0  0  0
  -13.8520  -23.6630   -6.7950 C   0  0  0  0  0  0  0  0  0  0  0  0
  -20.0130  -20.6960   -7.3730 C   0  0  0  0  0  0  0  0  0  0  0  0
  -17.8830  -26.8420  -10.3950 C   0  0  0  0  0  0  0  0  0  0  0  0
  -19.4150  -22.9420   -8.2090 C   0  0  0  0  0  0  0  0  0  0  0  0
  -22.2340  -24.1860   -9.6570 O   0  0  0  0  0  0  0  0  0  0  0  0
  -20.4420  -23.4180  -11.1540 O   0  0  0  0  0  0  0  0  0  0  0  0
  -20.6500  -22.6030   -8.7430 C   0  0  0  0  0  0  0  0  0  0  0  0
  -15.5900  -24.4260   -7.8920 N   0  0  0  0  0  0  0  0  0  0  0  0
  1 18  1  0
  2  5  1  0
  4 21  1  0
  5 19  1  0
  6 23  2  0
  7  3  1  0
  7 27  1  0
  8  9  1  0
  9  2  1  0
 10  8  2  0
 11 20  2  0
 13  7  1  0
 13  6  2  0
 14 13  1  0
 15 24  1  0
 16 15  1  0
 18  3  2  0
 20 17  1  0
 20  8  1  0
 21 12  1  0
 22 18  1  0
 22 14  2  0
 23 12  1  0
 25 15  1  0
 26 15  1  0
 26 23  1  0
 26  4  1  0
 27 11  1  0
 27 10  1  0
M  END
$$$$

     RDKit          3D

 11 12  0  0  0  0  0  0  0  0999 V2000
  -16.0110  -22.0750   -6.4380 C   0  0  0  0  0  0  0  0  0  0  0  0
  -17.8410  -23.2790   -7.5440 C   0  0  0  0  0  0  0  0  0  0  0  0
  -20.8950  -21.6060   -6.3330 C   0  0  0  0  0  0  0  0  0  0  0  0
  -17.4860  -24.5680   -7.9270 C   0  0  0  0  0  0  0  0  0  0  0  0
  -17.3870  -22.2960   -6.8300 C   0  0  0  0  0  0  0  0  0  0  0  0
  -16.2160  -24.9420   -7.9840 C   0  0  0  0  0  0  0  0  0  0  0  0
  -15.2170  -24.1940   -7.4450 C   0  0  0  0  0  0  0  0  0  0  0  0
  -18.3980  -21.4380   -6.5640 O   0  0  0  0  0  0  0  0  0  0  0  0
  -19.5710  -21.9800   -6.9560 C   0  0  0  0  0  0  0  0  0  0  0  0
  -19.3430  -22.9780   -7.7490 C   0  0  0  0  0  0  0  0  0  0  0  0
  -15.2000  -23.0500   -6.8030 C   0  0  0  0  0  0  0  0  0  0  0  0
  2  4  1  0
  2  5  1  0
  5  8  1  0
  5  1  1  0
  6  4  2  0
  6  7  1  0
  7 11  2  0
  9  8  1  0
  9  3  1  0
 10  2  1  0
 10  9  1  0
 11  1  1  0
M  END
$$$$

     RDKit          3D

 47 50  0  0  0  0  0  0  0  0999 V2000
  -19.4900  -18.9240   -1.9620 O   0  0  0  0  0  0  0  0  0  0  0  0
  -18.4910  -22.5340   -6.9970 C   0  0  0  0  0  0  0  0  0  0  0  0
  -21.4640  -22.7660  -11.4130 C   0  0  0  0  0  0  0  0  0  0  0  0
  -13.9490  -27.9420  -11.0210 C   0  0  0  0  0  0  0  0  0  0  0  0
  -18.6280  -21.1030    2.6690 C   0  0  0  0  0  0  0  0  0  0  0  0
  -13.4350  -25.9980  -12.4860 C   0  0  0  0  0  0  0  0  0  0  0  0
  -17.4050  -26.5060  -10.4620 O   0  0  0  0  0  0  0  0  0  0  0  0
  -20.2750  -23.1970   -9.2820 C   0  0  0  0  0  0  0  0  0  0  0  0
  -20.0080  -21.2210    1.9020 C   0  0  0  0  0  0  0  0  0  0  0  0
  -18.9890  -20.9990   -3.1770 C   0  0  0  0  0  0  0  0  0  0  0  0
  -12.3940  -26.7100  -12.8540 N   0  0  0  0  0  0  0  0  0  0  0  0
  -19.0250  -23.6690   -9.1640 C   0  0  0  0  0  0  0  0  0  0  0  0
  -20.6580  -19.5960    0.5670 O   0  0  0  0  0  0  0  0  0  0  0  0
  -14.8990  -28.8170  -11.4210 O   0  0  0  0  0  0  0  0  0  0  0  0
  -21.3190  -21.1220   -8.1140 O   0  0  0  0  0  0  0  0  0  0  0  0
  -20.4390  -22.1970   -1.0880 O   0  0  0  0  0  0  0  0  0  0  0  0
   -7.5330  -26.0900  -14.2320 O   0  0  0  0  0  0  0  0  0  0  0  0
  -19.8280  -20.5750    0.4300 C   0  0  0  0  0  0  0  0  0  0  0  0
  -16.8920  -25.5700   -8.3660 C   0  0  0  0  0  0  0  0  0  0  0  0
  -19.6380  -22.0930   -3.7290 O   0  0  0  0  0  0  0  0  0  0  0  0
  -19.2990  -21.6900   -5.3210 C   0  0  0  0  0  0  0  0  0  0  0  0
  -21.2490  -23.3600  -10.2550 C   0  0  0  0  0  0  0  0  0  0  0  0
  -13.6270  -26.7440  -11.6000 C   0  0  0  0  0  0  0  0  0  0  0  0
   -8.1500  -26.6050  -13.2870 C   0  0  0  0  0  0  0  0  0  0  0  0
  -19.9700  -20.2460   -2.1550 C   0  0  0  0  0  0  0  0  0  0  0  0
  -14.3360  -26.8870  -10.0370 C   0  0  0  0  0  0  0  0  0  0  0  0
  -11.6870  -27.0180  -14.0200 C   0  0  0  0  0  0  0  0  0  0  0  0
  -20.4240  -22.0740   -7.9690 C   0  0  0  0  0  0  0  0  0  0  0  0
  -21.1860  -21.3500    4.2750 C   0  0  0  0  0  0  0  0  0  0  0  0
  -11.7430  -28.1680  -13.4960 C   0  0  0  0  0  0  0  0  0  0  0  0
  -16.5280  -26.1190   -9.7640 C   0  0  0  0  0  0  0  0  0  0  0  0
  -16.6640  -24.0550   -8.2350 C   0  0  0  0  0  0  0  0  0  0  0  0
  -17.4250  -20.9760   -3.7350 C   0  0  0  0  0  0  0  0  0  0  0  0
  -18.1760  -22.8470   -5.5710 C   0  0  0  0  0  0  0  0  0  0  0  0
  -20.5330  -22.1840   -5.8260 C   0  0  0  0  0  0  0  0  0  0  0  0
  -20.0360  -22.2580   -6.7830 N   0  0  0  0  0  0  0  0  0  0  0  0
  -15.3270  -26.1540  -10.5810 O   0  0  0  0  0  0  0  0  0  0  0  0
  -17.9710  -23.2200   -8.3920 C   0  0  0  0  0  0  0  0  0  0  0  0
   -7.8300  -28.0350  -12.7950 C   0  0  0  0  0  0  0  0  0  0  0  0
  -20.5690  -22.5770  -12.8350 C   0  0  0  0  0  0  0  0  0  0  0  0
  -18.3020  -21.0420    4.0250 C   0  0  0  0  0  0  0  0  0  0  0  0
  -21.2330  -20.8450    2.8520 O   0  0  0  0  0  0  0  0  0  0  0  0
  -20.1310  -20.6830    4.9140 C   0  0  0  0  0  0  0  0  0  0  0  0
   -9.5360  -26.2750  -13.0200 C   0  0  0  0  0  0  0  0  0  0  0  0
  -10.1790  -26.9680  -11.9760 O   0  0  0  0  0  0  0  0  0  0  0  0
  -19.8860  -21.0600   -0.9450 C   0  0  0  0  0  0  0  0  0  0  0  0
  -10.4120  -26.0890  -14.2330 C   0  0  0  0  0  0  0  0  0  0  0  0
  2 36  1  0
  2 34  1  0
  3 22  1  0
  4 14  1  0
  4 26  1  0
  5 41  1  0
  7 31  2  0
  8 12  2  0
  8 28  1  0
  9  5  1  0
  9 42  1  0
 10 33  1  0
 10 25  1  0
 11  6  1  0
 12 38  1  0
 15 28  2  0
 16 46  2  0
 17 24  2  0
 18 13  1  0
 18  9  1  0
 19 32  1  0
 20 10  1  0
 21 20  1  0
 22  8  1  0
 23  6  1  0
 23  4  1  0
 23 26  1  0
 24 44  1  0
 24 39  1  0
 25  1  1  0
 25 46  1  0
 26 37  1  0
 27 47  1  0
 27 30  1  0
 27 11  1  0
 28 36  1  0
 29 43  1  0
 30 11  1  0
 31 19  1  0
 34 21  1  0
 35 21  1  0
 36 35  1  0
 37 31  1  0
 38 32  1  0
 38  2  1  0
 40  3  1  0
 42 29  1  0
 44 45  1  0
 46 18  1  0
 47 44  1  0
M  END
$$$$

     RDKit          3D

  8  9  0  0  0  0  0  0  0  0999 V2000
  -19.1390  -22.6310   -5.9420 C   0  0  0  0  0  0  0  0  0  0  0  0
  -15.7890  -22.6480   -7.0440 C   0  0  0  0  0  0  0  0  0  0  0  0
  -15.4750  -22.5890   -5.6290 C   0  0  0  0  0  0  0  0  0  0  0  0
  -17.2580  -22.6430   -7.0710 C   0  0  0  0  0  0  0  0  0  0  0  0
  -18.1780  -23.1340   -7.7330 N   0  0  0  0  0  0  0  0  0  0  0  0
  -17.6620  -22.6940   -5.8220 C   0  0  0  0  0  0  0  0  0  0  0  0
  -19.3640  -22.8760   -7.1790 N   0  0  0  0  0  0  0  0  0  0  0  0
  -16.6230  -22.8590   -4.8610 C   0  0  0  0  0  0  0  0  0  0  0  0
  2  3  1  0
  3  8  1  0
  4  2  1  0
  4  6  1  0
  5  7  1  0
  5  4  2  0
  6  1  1  0
  6  8  1  0
  7  1  1  0
M  END
$$$$

     RDKit          3D

 11 12  0  0  0  0  0  0  0  0999 V2000
  -16.6850  -24.9420   -8.4980 C   0  0  0  0  0  0  0  0  0  0  0  0
  -16.2060  -23.8280   -9.0240 C   0  0  0  0  0  0  0  0  0  0  0  0
  -15.8700  -23.0150   -5.5280 C   0  0  0  0  0  0  0  0  0  0  0  0
  -17.1490  -26.1380   -8.7210 O   0  0  0  0  0  0  0  0  0  0  0  0
  -15.7340  -23.4680   -6.7810 C   0  0  0  0  0  0  0  0  0  0  0  0
  -14.4410  -22.1730   -3.7350 O   0  0  0  0  0  0  0  0  0  0  0  0
  -16.9880  -23.7780   -7.6280 C   0  0  0  0  0  0  0  0  0  0  0  0
  -18.3160  -23.6270   -7.3140 O   0  0  0  0  0  0  0  0  0  0  0  0
  -14.3940  -23.5250   -7.1450 C   0  0  0  0  0  0  0  0  0  0  0  0
  -13.8240  -22.7760   -6.0830 C   0  0  0  0  0  0  0  0  0  0  0  0
  -14.6590  -22.5830   -4.9880 C   0  0  0  0  0  0  0  0  0  0  0  0
  1  4  1  0
  1  7  1  0
  2  1  1  0
  2  7  1  0
  3 11  1  0
  5  9  1  0
  5  3  1  0
  7  8  1  0
  7  5  1  0
  9 10  1  0
 10 11  1  0
 11  6  1  0
M  END
$$$$

     RDKit          3D

 11 11  0  0  0  0  0  0  0  0999 V2000
  -16.7710  -24.1610   -8.1040 C   0  0  0  0  0  0  0  0  0  0  0  0
  -15.9350  -21.9100   -6.3330 C   0  0  0  0  0  0  0  0  0  0  0  0
  -15.5140  -24.3200   -7.3580 C   0  0  0  0  0  0  0  0  0  0  0  0
  -20.3940  -21.5880   -7.7880 O   0  0  0  0  0  0  0  0  0  0  0  0
  -17.0080  -24.6780   -9.2090 O   0  0  0  0  0  0  0  0  0  0  0  0
  -19.8230  -21.9200   -5.7470 O   0  0  0  0  0  0  0  0  0  0  0  0
  -18.0740  -23.7280   -7.3840 C   0  0  0  0  0  0  0  0  0  0  0  0
  -17.0610  -21.7590   -7.3320 N   0  0  0  0  0  0  0  0  0  0  0  0
  -15.1150  -23.1530   -6.3800 C   0  0  0  0  0  0  0  0  0  0  0  0
  -19.2970  -21.4030   -6.9880 C   0  0  0  0  0  0  0  0  0  0  0  0
  -18.2660  -22.4840   -7.4380 C   0  0  0  0  0  0  0  0  0  0  0  0
  1  7  1  0
  1  3  1  0
  3  9  2  0
  4 10  1  0
  5  1  2  0
  8  2  1  0
  9  2  1  0
 10  6  1  0
 11  7  1  0
 11  8  2  0
 11 10  1  0
M  END
$$$$

     RDKit          3D

 36 39  0  0  0  0  0  0  0  0999 V2000
   -9.0060  -26.3510   -4.9380 C   0  0  0  0  0  0  0  0  0  0  0  0
  -14.8350  -27.4920  -10.9480 C   0  0  0  0  0  0  0  0  0  0  0  0
  -20.7580  -21.8940   -8.0760 O   0  0  0  0  0  0  0  0  0  0  0  0
  -25.6520  -18.2260   -6.1410 O   0  0  0  0  0  0  0  0  0  0  0  0
  -10.1750  -28.0910   -5.5180 C   0  0  0  0  0  0  0  0  0  0  0  0
   -8.9360  -27.6790   -5.0890 N   0  0  0  0  0  0  0  0  0  0  0  0
  -12.6480  -26.4430   -8.1500 C   0  0  0  0  0  0  0  0  0  0  0  0
  -13.5790  -27.8860  -10.1440 C   0  0  0  0  0  0  0  0  0  0  0  0
  -22.8650  -21.0210   -7.5400 C   0  0  0  0  0  0  0  0  0  0  0  0
  -15.2350  -24.4860   -7.8600 S   0  0  0  0  0  0  0  0  0  0  0  0
  -13.9860  -29.9450  -11.9110 F   0  0  0  0  0  0  0  0  0  0  0  0
  -11.9260  -30.1020  -12.3100 F   0  0  0  0  0  0  0  0  0  0  0  0
  -23.5850  -20.0290   -6.7820 C   0  0  0  0  0  0  0  0  0  0  0  0
  -21.0020  -20.0740   -6.2920 C   0  0  0  0  0  0  0  0  0  0  0  0
  -19.0450  -23.5190   -7.8490 C   0  0  0  0  0  0  0  0  0  0  0  0
  -17.5490  -25.0590   -8.9720 C   0  0  0  0  0  0  0  0  0  0  0  0
  -18.6610  -25.5700   -9.7670 C   0  0  0  0  0  0  0  0  0  0  0  0
  -18.4380  -26.7830  -10.5930 C   0  0  0  0  0  0  0  0  0  0  0  0
  -10.7920  -27.2040   -6.4290 C   0  0  0  0  0  0  0  0  0  0  0  0
  -19.4910  -22.0700   -8.1880 C   0  0  0  0  0  0  0  0  0  0  0  0
  -23.9910  -17.0790   -4.9640 N   0  0  0  0  0  0  0  0  0  0  0  0
  -13.5850  -27.1450   -8.9700 N   0  0  0  0  0  0  0  0  0  0  0  0
  -11.7830  -27.4450   -7.3420 C   0  0  0  0  0  0  0  0  0  0  0  0
  -16.2790  -25.4900   -9.0040 C   0  0  0  0  0  0  0  0  0  0  0  0
  -21.4310  -20.9870   -7.2920 C   0  0  0  0  0  0  0  0  0  0  0  0
  -21.8300  -19.2940   -5.4230 C   0  0  0  0  0  0  0  0  0  0  0  0
  -13.2710  -28.7140  -13.1490 F   0  0  0  0  0  0  0  0  0  0  0  0
  -23.2810  -19.2300   -5.8370 C   0  0  0  0  0  0  0  0  0  0  0  0
  -10.0960  -25.6610   -5.9950 S   0  0  0  0  0  0  0  0  0  0  0  0
  -13.0820  -29.6330  -11.9500 C   0  0  0  0  0  0  0  0  0  0  0  0
  -16.6930  -23.8470   -7.1520 C   0  0  0  0  0  0  0  0  0  0  0  0
  -24.4040  -18.1590   -5.5550 C   0  0  0  0  0  0  0  0  0  0  0  0
  -12.5970  -28.4880  -10.9770 O   0  0  0  0  0  0  0  0  0  0  0  0
  -17.1830  -27.3370  -10.7220 C   0  0  0  0  0  0  0  0  0  0  0  0
  -17.7890  -24.0270   -7.8990 C   0  0  0  0  0  0  0  0  0  0  0  0
  -15.9300  -26.6990   -9.9990 C   0  0  0  0  0  0  0  0  0  0  0  0
  2 36  1  0
  3 25  1  0
  4 32  2  0
  5  6  1  0
  6  1  1  0
  7 23  1  0
  8  2  1  0
  8 22  1  0
  9 25  2  0
  9 13  1  0
 10 31  1  0
 12 30  1  0
 13 28  2  0
 14 26  2  0
 16 35  1  0
 17 16  2  0
 18 17  1  0
 19 29  1  0
 19  5  1  0
 20  3  1  0
 20 15  1  0
 22  7  1  0
 23 19  2  3
 24 16  1  0
 24 10  1  0
 25 14  1  0
 27 30  1  0
 28 32  1  0
 28 26  1  0
 29  1  1  0
 30 11  1  0
 30 33  1  0
 32 21  1  0
 33  8  1  0
 34 18  2  0
 34 36  1  0
 35 15  1  0
 35 31  1  0
 36 24  2  0
M  END
$$$$
