
     RDKit          3D

 17 17  0  0  0  0  0  0  0  0999 V2000
  -19.3150  -21.2600   -3.7790 O   0  0  0  0  0  0  0  0  0  0  0  0
  -17.3490  -23.8730   -6.8730 C   0  0  0  0  0  0  0  0  0  0  0  0
  -17.5460  -22.9810   -5.9180 N   0  0  0  0  0  0  0  0  0  0  0  0
  -17.8530  -22.1420   -5.2560 C   0  0  0  0  0  0  0  0  0  0  0  0
  -15.9810  -25.0670   -8.3810 C   0  0  0  0  0  0  0  0  0  0  0  0
  -18.3600  -23.9800   -7.8520 C   0  0  0  0  0  0  0  0  0  0  0  0
  -18.3000  -20.1350   -2.1640 O   0  0  0  0  0  0  0  0  0  0  0  0
  -14.8200  -23.6450   -6.7280 C   0  0  0  0  0  0  0  0  0  0  0  0
  -20.4320  -19.6390   -2.5360 O   0  0  0  0  0  0  0  0  0  0  0  0
  -18.5050  -20.8400   -4.9360 C   0  0  0  0  0  0  0  0  0  0  0  0
  -18.2620  -24.9380   -8.8150 N   0  0  0  0  0  0  0  0  0  0  0  0
  -17.1000  -25.4450   -9.0510 C   0  0  0  0  0  0  0  0  0  0  0  0
  -14.6800  -25.4240   -8.7140 O   0  0  0  0  0  0  0  0  0  0  0  0
  -13.6940  -25.9250   -7.8090 C   0  0  0  0  0  0  0  0  0  0  0  0
  -19.3670  -20.2180   -2.7770 C   0  0  0  0  0  0  0  0  0  0  0  0
  -19.6250  -23.1210   -7.7540 C   0  0  0  0  0  0  0  0  0  0  0  0
  -15.9990  -24.2220   -7.3110 C   0  0  0  0  0  0  0  0  0  0  0  0
  1 15  1  0
  2  3  1  0
  3  4  1  0
  4 10  1  0
  5 17  1  0
  6 16  1  0
  6  2  1  0
 10  1  1  0
 11  6  2  0
 12 11  1  0
 12  5  2  0
 13  5  1  0
 13 14  1  0
 15  9  2  0
 15  7  1  0
 17  2  1  0
 17  8  1  0
M  END
$$$$

     RDKit          3D

 25 28  0  0  0  0  0  0  0  0999 V2000
  -21.2600  -21.1480   -7.0410 C   0  0  0  0  0  0  0  0  0  0  0  0
  -19.9600  -22.8660   -8.1770 N   0  0  0  0  0  0  0  0  0  0  0  0
  -16.4440  -23.3580   -7.2290 N   0  0  0  0  0  0  0  0  0  0  0  0
  -23.5460  -20.9210   -7.3260 C   0  0  0  0  0  0  0  0  0  0  0  0
  -14.5910  -25.4320   -8.9350 C   0  0  0  0  0  0  0  0  0  0  0  0
  -14.0230  -23.8790   -7.2270 N   0  0  0  0  0  0  0  0  0  0  0  0
  -19.3550  -21.4980   -5.0220 C   0  0  0  0  0  0  0  0  0  0  0  0
  -17.7860  -20.5800   -3.1610 C   0  0  0  0  0  0  0  0  0  0  0  0
  -19.1360  -23.5700   -8.5630 N   0  0  0  0  0  0  0  0  0  0  0  0
  -15.9550  -25.1870   -8.7900 C   0  0  0  0  0  0  0  0  0  0  0  0
  -19.0730  -22.0360   -6.2200 C   0  0  0  0  0  0  0  0  0  0  0  0
  -21.7110  -21.1200   -5.5710 C   0  0  0  0  0  0  0  0  0  0  0  0
  -17.2110  -21.9250   -3.4630 C   0  0  0  0  0  0  0  0  0  0  0  0
  -13.6940  -24.8100   -8.0800 C   0  0  0  0  0  0  0  0  0  0  0  0
  -20.6930  -21.3030   -4.6060 N   0  0  0  0  0  0  0  0  0  0  0  0
  -12.2960  -25.1150   -8.1600 C   0  0  0  0  0  0  0  0  0  0  0  0
  -22.3530  -21.5520   -7.7830 O   0  0  0  0  0  0  0  0  0  0  0  0
  -18.4410  -21.6730   -4.0540 C   0  0  0  0  0  0  0  0  0  0  0  0
  -16.8030  -24.2060   -8.2370 C   0  0  0  0  0  0  0  0  0  0  0  0
  -18.1150  -24.3330   -9.0270 C   0  0  0  0  0  0  0  0  0  0  0  0
  -15.1540  -23.2970   -6.8160 C   0  0  0  0  0  0  0  0  0  0  0  0
  -11.2750  -25.2290   -8.5910 C   0  0  0  0  0  0  0  0  0  0  0  0
  -20.0840  -22.0500   -7.1650 C   0  0  0  0  0  0  0  0  0  0  0  0
  -18.0470  -25.4360   -9.7990 N   0  0  0  0  0  0  0  0  0  0  0  0
  -16.8850  -25.9690   -9.6720 O   0  0  0  0  0  0  0  0  0  0  0  0
  1 17  1  0
  1 12  1  0
  2 23  2  3
  3 21  1  0
  5 14  1  0
  6 21  1  0
  7 15  2  0
  7 18  1  0
  9  2  1  0
 10  5  1  0
 10 19  1  0
 11  7  1  0
 12 15  1  0
 13  8  1  0
 14  6  2  0
 16 14  1  0
 17  4  1  0
 18 13  1  0
 18  8  1  0
 19  3  2  0
 20  9  1  0
 20 19  1  0
 22 16  3  0
 23  1  1  0
 23 11  1  0
 24 25  1  0
 24 20  2  0
 25 10  1  0
M  END
$$$$

     RDKit          3D

  9 10  0  0  0  0  0  0  0  0999 V2000
  -14.6260  -22.9710   -7.4110 C   0  0  0  0  0  0  0  0  0  0  0  0
  -16.2690  -22.0520   -5.6490 C   0  0  0  0  0  0  0  0  0  0  0  0
  -15.8790  -23.1430   -6.7070 C   0  0  0  0  0  0  0  0  0  0  0  0
  -16.2240  -21.4240   -4.2940 C   0  0  0  0  0  0  0  0  0  0  0  0
  -15.2150  -21.4530   -5.0370 O   0  0  0  0  0  0  0  0  0  0  0  0
  -14.7510  -25.1530   -8.5210 C   0  0  0  0  0  0  0  0  0  0  0  0
  -16.2070  -25.5000   -7.9880 C   0  0  0  0  0  0  0  0  0  0  0  0
  -13.8750  -24.3200   -7.5480 C   0  0  0  0  0  0  0  0  0  0  0  0
  -16.8370  -24.3190   -7.3020 C   0  0  0  0  0  0  0  0  0  0  0  0
  1  3  1  0
  2  3  1  0
  2  5  1  0
  2  4  1  0
  5  4  1  0
  6  7  1  0
  6  8  1  0
  7  9  1  0
  8  1  1  0
  9  3  1  0
M  END
$$$$

     RDKit          3D

 10 10  0  0  0  0  0  0  0  0999 V2000
  -19.8070  -21.1400   -6.2940 N   0  0  0  0  0  0  0  0  0  0  0  0
  -19.7940  -22.3840   -6.7280 C   0  0  0  0  0  0  0  0  0  0  0  0
  -16.7600  -22.2280   -7.3900 C   0  0  0  0  0  0  0  0  0  0  0  0
  -20.6670  -23.1700   -6.6800 O   0  0  0  0  0  0  0  0  0  0  0  0
  -17.7950  -23.2410   -6.0970 O   0  0  0  0  0  0  0  0  0  0  0  0
  -16.7600  -22.3390   -5.6980 C   0  0  0  0  0  0  0  0  0  0  0  0
  -18.3330  -22.8570   -7.4520 C   0  0  0  0  0  0  0  0  0  0  0  0
  -14.9960  -23.8080   -6.8540 C   0  0  0  0  0  0  0  0  0  0  0  0
  -15.3620  -22.6370   -5.1130 C   0  0  0  0  0  0  0  0  0  0  0  0
  -16.1450  -23.5680   -7.7700 C   0  0  0  0  0  0  0  0  0  0  0  0
  2  4  2  0
  2  1  1  0
  3 10  1  0
  3  6  1  0
  5  6  1  0
  6  9  1  0
  7  3  1  0
  7  2  1  0
  7  5  1  0
 10  8  1  0
M  END
$$$$

     RDKit          3D

 12 15  0  0  0  0  0  0  0  0999 V2000
  -14.8240  -25.5630   -8.3930 C   0  0  0  0  0  0  0  0  0  0  0  0
  -15.8220  -26.5100   -8.7130 C   0  0  0  0  0  0  0  0  0  0  0  0
  -18.0210  -25.2140   -9.3100 O   0  0  0  0  0  0  0  0  0  0  0  0
  -18.8000  -22.1840   -6.5590 N   0  0  0  0  0  0  0  0  0  0  0  0
  -17.1800  -24.0620   -9.4140 C   0  0  0  0  0  0  0  0  0  0  0  0
  -17.3800  -26.2270   -8.8850 C   0  0  0  0  0  0  0  0  0  0  0  0
  -19.9070  -22.9630   -8.3470 O   0  0  0  0  0  0  0  0  0  0  0  0
  -16.5760  -23.8030   -8.1570 C   0  0  0  0  0  0  0  0  0  0  0  0
  -17.6940  -23.2590   -8.0040 C   0  0  0  0  0  0  0  0  0  0  0  0
  -15.3170  -24.2340   -7.6670 C   0  0  0  0  0  0  0  0  0  0  0  0
  -17.6240  -22.5800   -6.7370 N   0  0  0  0  0  0  0  0  0  0  0  0
  -18.8490  -22.7640   -7.6800 N   0  0  0  0  0  0  0  0  0  0  0  0
  1 10  1  0
  2  1  1  0
  3  6  1  0
  5  3  1  0
  5  8  1  0
  5  9  1  0
  6  2  1  0
  7 12  1  0
  8  9  1  0
  8 10  1  0
  9 12  1  0
  9 11  1  0
 11  4  1  0
 12 11  1  0
 12  4  1  0
M  END
$$$$

     RDKit          3D

 10 10  0  0  0  0  0  0  0  0999 V2000
  -15.6100  -23.8880   -6.9900 O   0  0  0  0  0  0  0  0  0  0  0  0
  -19.7730  -24.8410   -8.9100 N   0  0  0  0  0  0  0  0  0  0  0  0
  -18.7370  -24.7400   -8.5800 C   0  0  0  0  0  0  0  0  0  0  0  0
  -18.5520  -22.9750   -7.0670 C   0  0  0  0  0  0  0  0  0  0  0  0
  -16.9800  -25.3670   -9.2640 O   0  0  0  0  0  0  0  0  0  0  0  0
  -17.6620  -22.6740   -5.8990 C   0  0  0  0  0  0  0  0  0  0  0  0
  -16.7670  -22.4530   -6.1550 N   0  0  0  0  0  0  0  0  0  0  0  0
  -17.9370  -23.9120   -7.6260 C   0  0  0  0  0  0  0  0  0  0  0  0
  -16.6770  -23.8100   -7.1790 C   0  0  0  0  0  0  0  0  0  0  0  0
  -18.0060  -25.8410   -9.3300 C   0  0  0  0  0  0  0  0  0  0  0  0
  2  3  2  0
  4  6  1  0
  7  6  1  0
  8  3  1  0
  8  9  1  0
  8  4  1  0
  9  1  2  0
  9  7  2  0
 10  5  1  0
 10  3  1  0
M  END
$$$$

     RDKit          3D

 17 20  0  0  0  0  0  0  0  0999 V2000
  -20.0190  -22.8220   -8.6430 C   0  0  0  0  0  0  0  0  0  0  0  0
  -16.0370  -23.4740   -7.1580 C   0  0  0  0  0  0  0  0  0  0  0  0
  -15.6600  -25.5420   -8.7280 C   0  0  0  0  0  0  0  0  0  0  0  0
  -18.7860  -23.1330   -5.8610 C   0  0  0  0  0  0  0  0  0  0  0  0
  -12.0760  -25.3570   -8.0640 C   0  0  0  0  0  0  0  0  0  0  0  0
  -20.8820  -22.5450   -7.4540 C   0  0  0  0  0  0  0  0  0  0  0  0
  -14.6050  -25.1890   -8.0060 C   0  0  0  0  0  0  0  0  0  0  0  0
  -20.0210  -21.8960   -4.7190 C   0  0  0  0  0  0  0  0  0  0  0  0
  -18.9010  -23.7690   -8.4240 C   0  0  0  0  0  0  0  0  0  0  0  0
  -16.8280  -24.7800   -8.7540 C   0  0  0  0  0  0  0  0  0  0  0  0
  -19.2300  -22.0330   -4.0340 N   0  0  0  0  0  0  0  0  0  0  0  0
  -17.3580  -23.7140   -7.9590 C   0  0  0  0  0  0  0  0  0  0  0  0
  -14.8580  -23.9480   -7.0010 C   0  0  0  0  0  0  0  0  0  0  0  0
  -18.3730  -22.8760   -4.4970 C   0  0  0  0  0  0  0  0  0  0  0  0
  -20.2020  -22.1470   -6.3770 C   0  0  0  0  0  0  0  0  0  0  0  0
  -18.7460  -22.9510   -6.9630 C   0  0  0  0  0  0  0  0  0  0  0  0
  -13.4600  -25.9290   -8.0280 O   0  0  0  0  0  0  0  0  0  0  0  0
  1  6  1  0
  2 13  2  0
  3  7  2  0
  4 14  1  0
  5 17  1  0
  7 13  1  0
  8 11  1  0
  9  1  1  0
  9 12  1  0
  9 16  1  0
 10  3  1  0
 12 10  1  0
 12  2  1  0
 12 16  1  0
 14 11  1  0
 15  6  1  0
 15  8  1  0
 16 15  1  0
 16  4  1  0
 17  7  1  0
M  END
$$$$

     RDKit          3D

 14 16  0  0  0  0  0  0  0  0999 V2000
  -19.5690  -20.8700   -5.7490 C   0  0  0  0  0  0  0  0  0  0  0  0
  -15.2830  -25.6130   -8.6020 O   0  0  0  0  0  0  0  0  0  0  0  0
  -16.4870  -25.1170   -8.5280 C   0  0  0  0  0  0  0  0  0  0  0  0
  -18.3640  -22.4150   -7.2780 C   0  0  0  0  0  0  0  0  0  0  0  0
  -17.4230  -25.7180   -9.3800 C   0  0  0  0  0  0  0  0  0  0  0  0
  -16.7800  -24.0630   -7.7650 C   0  0  0  0  0  0  0  0  0  0  0  0
  -20.9930  -22.6980   -7.4400 S   0  0  0  0  0  0  0  0  0  0  0  0
  -19.6700  -21.8020   -7.0410 C   0  0  0  0  0  0  0  0  0  0  0  0
  -18.3280  -21.3990   -4.8210 C   0  0  0  0  0  0  0  0  0  0  0  0
  -18.7080  -25.3530   -9.3980 C   0  0  0  0  0  0  0  0  0  0  0  0
  -17.2400  -21.4490   -6.3740 S   0  0  0  0  0  0  0  0  0  0  0  0
  -20.4830  -23.7890   -8.6310 N   0  0  0  0  0  0  0  0  0  0  0  0
  -19.0860  -24.2150   -8.6130 C   0  0  0  0  0  0  0  0  0  0  0  0
  -18.0890  -23.6090   -7.7330 C   0  0  0  0  0  0  0  0  0  0  0  0
  1  9  1  0
  2  3  1  0
  3  6  2  0
  4  8  1  0
  4 11  1  0
  5  3  1  0
  7  8  1  0
  8  1  1  0
 10  5  2  0
 10 13  1  0
 11  9  1  0
 12 13  2  0
 12  7  1  0
 13 14  1  0
 14  6  1  0
 14  4  1  0
M  END
$$$$

     RDKit          3D

  7  6  0  0  0  0  0  0  0  0999 V2000
  -18.6590  -23.2560   -6.8500 N   0  0  0  0  0  0  0  0  0  0  0  0
  -17.4610  -23.5600   -6.7670 C   0  0  0  0  0  0  0  0  0  0  0  0
  -16.7370  -23.7610   -5.9450 O   0  0  0  0  0  0  0  0  0  0  0  0
  -19.9270  -21.2900   -6.8130 C   0  0  0  0  0  0  0  0  0  0  0  0
  -17.1860  -23.5950   -8.0020 O   0  0  0  0  0  0  0  0  0  0  0  0
  -18.9640  -19.8290   -6.4560 N   0  0  0  0  0  0  0  0  0  0  0  0
  -19.2090  -22.3360   -5.7490 C   0  0  0  0  0  0  0  0  0  0  0  0
  1  2  1  0
  1  7  1  0
  2  3  1  0
  4  6  1  0
  4  7  1  0
  5  2  2  0
M  END
$$$$

     RDKit          3D

 28 31  0  0  0  0  0  0  0  0999 V2000
  -21.0890  -22.3380   -8.4590 O   0  0  0  0  0  0  0  0  0  0  0  0
  -14.4410  -24.0330   -7.5070 C   0  0  0  0  0  0  0  0  0  0  0  0
  -19.0630  -23.6990   -8.2500 C   0  0  0  0  0  0  0  0  0  0  0  0
  -12.1560  -26.6450   -8.8560 N   0  0  0  0  0  0  0  0  0  0  0  0
  -12.1420  -25.8550   -6.9290 O   0  0  0  0  0  0  0  0  0  0  0  0
  -15.1070  -25.8660   -8.9570 C   0  0  0  0  0  0  0  0  0  0  0  0
  -19.9000  -21.9240   -6.8420 N   0  0  0  0  0  0  0  0  0  0  0  0
  -14.8800  -20.3110   -5.1730 C   0  0  0  0  0  0  0  0  0  0  0  0
  -13.6080  -23.4060   -7.1160 O   0  0  0  0  0  0  0  0  0  0  0  0
  -17.8010  -23.6200   -7.4820 C   0  0  0  0  0  0  0  0  0  0  0  0
  -16.4420  -25.2790   -8.9840 C   0  0  0  0  0  0  0  0  0  0  0  0
  -21.9000  -20.7690   -5.6820 N   0  0  0  0  0  0  0  0  0  0  0  0
  -15.6140  -21.5570   -5.3930 C   0  0  0  0  0  0  0  0  0  0  0  0
  -14.0950  -25.3710   -8.1100 C   0  0  0  0  0  0  0  0  0  0  0  0
  -15.9280  -22.2950   -6.7730 C   0  0  0  0  0  0  0  0  0  0  0  0
  -16.2880  -22.2400   -4.2380 C   0  0  0  0  0  0  0  0  0  0  0  0
  -11.4070  -27.8010   -8.0420 C   0  0  0  0  0  0  0  0  0  0  0  0
  -16.6580  -24.2670   -7.9640 C   0  0  0  0  0  0  0  0  0  0  0  0
  -20.7820  -19.4190   -4.6140 N   0  0  0  0  0  0  0  0  0  0  0  0
  -15.5930  -23.5530   -7.4590 N   0  0  0  0  0  0  0  0  0  0  0  0
  -20.5540  -20.9680   -6.1690 C   0  0  0  0  0  0  0  0  0  0  0  0
  -19.8960  -20.0740   -5.4130 N   0  0  0  0  0  0  0  0  0  0  0  0
  -22.0620  -19.8040   -4.8050 N   0  0  0  0  0  0  0  0  0  0  0  0
  -16.8780  -23.4540   -4.9160 C   0  0  0  0  0  0  0  0  0  0  0  0
  -12.6880  -25.7780   -8.0690 C   0  0  0  0  0  0  0  0  0  0  0  0
  -20.1020  -22.5990   -7.8870 C   0  0  0  0  0  0  0  0  0  0  0  0
  -23.2070  -21.2080   -6.3630 C   0  0  0  0  0  0  0  0  0  0  0  0
  -17.3570  -22.8000   -6.3160 C   0  0  0  0  0  0  0  0  0  0  0  0
  1 26  2  0
  2 20  1  0
  2  9  2  0
  3 26  1  0
  4 25  1  0
  4 17  1  0
  6 14  2  0
  7 21  1  0
 10  3  1  0
 10 28  1  0
 11  6  1  0
 12 23  1  0
 13  8  1  0
 13 16  1  0
 14 25  1  0
 14  2  1  0
 15 20  1  0
 15 28  1  0
 15 13  1  0
 18 11  1  0
 18 10  1  0
 18 20  1  0
 21 12  1  0
 21 22  2  0
 22 19  1  0
 23 19  2  0
 24 16  1  0
 25  5  2  0
 26  7  1  0
 27 12  1  0
 28 24  1  0
M  END
$$$$

     RDKit          3D

  8  8  0  0  0  0  0  0  0  0999 V2000
  -16.0010  -24.5120   -7.2170 C   0  0  0  0  0  0  0  0  0  0  0  0
  -17.5110  -21.2020   -6.3920 C   0  0  0  0  0  0  0  0  0  0  0  0
  -16.4130  -24.5940   -8.6230 C   0  0  0  0  0  0  0  0  0  0  0  0
  -17.0480  -23.6100   -6.3540 C   0  0  0  0  0  0  0  0  0  0  0  0
  -16.3320  -21.3130   -5.3110 O   0  0  0  0  0  0  0  0  0  0  0  0
  -17.2310  -22.4230   -7.1740 C   0  0  0  0  0  0  0  0  0  0  0  0
  -18.2620  -22.8770   -8.1500 C   0  0  0  0  0  0  0  0  0  0  0  0
  -17.9110  -24.2370   -8.7740 C   0  0  0  0  0  0  0  0  0  0  0  0
  1  4  1  0
  2  5  1  0
  3  1  1  0
  6  2  1  0
  6  4  1  0
  7  6  1  0
  8  3  1  0
  8  7  1  0
M  END
$$$$

     RDKit          3D

 12 13  0  0  0  0  0  0  0  0999 V2000
  -16.6590  -24.2180   -7.6970 C   0  0  0  0  0  0  0  0  0  0  0  0
  -16.6660  -26.1070   -9.2280 C   0  0  0  0  0  0  0  0  0  0  0  0
  -18.7230  -24.7460   -8.9490 C   0  0  0  0  0  0  0  0  0  0  0  0
  -19.9020  -24.5700   -9.3370 O   0  0  0  0  0  0  0  0  0  0  0  0
  -15.9920  -25.3080   -8.3290 C   0  0  0  0  0  0  0  0  0  0  0  0
  -14.8950  -22.9400   -6.6690 C   0  0  0  0  0  0  0  0  0  0  0  0
  -18.0100  -25.8660   -9.5640 C   0  0  0  0  0  0  0  0  0  0  0  0
  -18.0040  -22.0540   -6.5770 C   0  0  0  0  0  0  0  0  0  0  0  0
  -18.6620  -22.7710   -7.6670 N   0  0  0  0  0  0  0  0  0  0  0  0
  -18.0280  -23.8860   -8.1340 C   0  0  0  0  0  0  0  0  0  0  0  0
  -16.0010  -23.6420   -6.6640 N   0  0  0  0  0  0  0  0  0  0  0  0
  -16.5480  -22.3160   -6.1470 C   0  0  0  0  0  0  0  0  0  0  0  0
  1 11  1  0
  2  5  1  0
  3 10  1  0
  4  3  2  0
  5  1  2  0
  6 11  1  0
  7  2  2  0
  7  3  1  0
  8 12  1  0
  9  8  1  0
 10  1  1  0
 10  9  2  0
 11 12  1  0
M  END
$$$$

     RDKit          3D

 18 21  0  0  0  0  0  0  0  0999 V2000
  -19.0780  -22.8940   -6.5730 O   0  0  0  0  0  0  0  0  0  0  0  0
  -17.2630  -18.0000   -4.0210 O   0  0  0  0  0  0  0  0  0  0  0  0
  -18.7020  -24.9370   -8.5550 C   0  0  0  0  0  0  0  0  0  0  0  0
  -18.9790  -26.2550   -9.6870 S   0  0  0  0  0  0  0  0  0  0  0  0
  -18.4550  -20.0240   -4.0770 C   0  0  0  0  0  0  0  0  0  0  0  0
  -16.3080  -25.3670   -8.8330 C   0  0  0  0  0  0  0  0  0  0  0  0
  -15.5990  -23.4190   -7.4520 C   0  0  0  0  0  0  0  0  0  0  0  0
  -16.3050  -26.4000   -9.3670 O   0  0  0  0  0  0  0  0  0  0  0  0
  -17.3660  -24.6360   -8.3230 C   0  0  0  0  0  0  0  0  0  0  0  0
  -16.2060  -19.9320   -3.1730 O   0  0  0  0  0  0  0  0  0  0  0  0
  -18.2360  -20.3610   -5.5730 C   0  0  0  0  0  0  0  0  0  0  0  0
  -17.6960  -22.9390   -6.4740 C   0  0  0  0  0  0  0  0  0  0  0  0
  -14.8890  -24.5780   -8.3610 S   0  0  0  0  0  0  0  0  0  0  0  0
  -17.1560  -22.3410   -5.2060 C   0  0  0  0  0  0  0  0  0  0  0  0
  -17.2200  -19.3280   -3.6670 C   0  0  0  0  0  0  0  0  0  0  0  0
  -16.9030  -23.6030   -7.3990 N   0  0  0  0  0  0  0  0  0  0  0  0
  -18.3500  -21.4620   -4.6740 N   0  0  0  0  0  0  0  0  0  0  0  0
  -19.2950  -21.5750   -5.7670 C   0  0  0  0  0  0  0  0  0  0  0  0
  1 12  1  0
  1 18  1  0
  2 15  2  0
  4  3  1  0
  5 15  1  0
  6 13  1  0
  6  9  1  0
  7 16  1  0
  8  6  2  0
  9  3  1  0
  9 16  1  0
 11 17  1  0
 11  5  1  0
 12 14  1  0
 13  7  1  0
 14 17  1  0
 15 10  1  0
 16 12  1  0
 17  5  1  0
 18 11  1  0
 18 17  1  0
M  END
$$$$

     RDKit          3D

  8  9  0  0  0  0  0  0  0  0999 V2000
  -18.0090  -21.4790   -6.9890 C   0  0  0  0  0  0  0  0  0  0  0  0
  -18.2910  -22.0970   -5.1150 S   0  0  0  0  0  0  0  0  0  0  0  0
  -18.7550  -21.9960   -8.0260 C   0  0  0  0  0  0  0  0  0  0  0  0
  -18.2150  -23.2710   -8.5080 C   0  0  0  0  0  0  0  0  0  0  0  0
  -16.7810  -23.7530   -7.3520 C   0  0  0  0  0  0  0  0  0  0  0  0
  -16.3920  -23.3960   -4.4100 O   0  0  0  0  0  0  0  0  0  0  0  0
  -16.5460  -22.3470   -5.4680 C   0  0  0  0  0  0  0  0  0  0  0  0
  -16.8950  -22.3600   -6.6820 N   0  0  0  0  0  0  0  0  0  0  0  0
  1  3  1  0
  1  8  1  0
  1  2  1  0
  4  3  2  0
  4  5  1  0
  7  2  1  0
  7  6  1  0
  8  5  1  0
  8  7  1  0
M  END
$$$$

     RDKit          3D

 20 22  0  0  0  0  0  0  0  0999 V2000
  -15.3060  -23.1650   -5.5410 C   0  0  0  0  0  0  0  0  0  0  0  0
  -11.7310  -23.3560   -7.3860 O   0  0  0  0  0  0  0  0  0  0  0  0
  -17.4750  -23.3860   -6.8150 C   0  0  0  0  0  0  0  0  0  0  0  0
  -21.8880  -21.3350   -6.7610 C   0  0  0  0  0  0  0  0  0  0  0  0
  -14.1430  -23.0510   -5.7640 C   0  0  0  0  0  0  0  0  0  0  0  0
  -20.8330  -20.4730   -4.7330 N   0  0  0  0  0  0  0  0  0  0  0  0
  -19.6570  -22.0600   -6.1780 C   0  0  0  0  0  0  0  0  0  0  0  0
  -18.4830  -23.8130   -7.6640 C   0  0  0  0  0  0  0  0  0  0  0  0
  -20.7430  -21.2530   -5.9720 C   0  0  0  0  0  0  0  0  0  0  0  0
  -16.1710  -25.0420   -8.6730 C   0  0  0  0  0  0  0  0  0  0  0  0
  -21.7650  -22.3090   -7.7960 C   0  0  0  0  0  0  0  0  0  0  0  0
  -17.3970  -25.3200   -9.1410 C   0  0  0  0  0  0  0  0  0  0  0  0
  -16.2320  -23.6670   -6.4690 C   0  0  0  0  0  0  0  0  0  0  0  0
  -20.6750  -23.0620   -8.0670 N   0  0  0  0  0  0  0  0  0  0  0  0
  -12.1220  -24.1110   -5.0230 O   0  0  0  0  0  0  0  0  0  0  0  0
  -12.7710  -23.6190   -6.3370 S   0  0  0  0  0  0  0  0  0  0  0  0
  -14.0870  -24.2540   -7.6110 O   0  0  0  0  0  0  0  0  0  0  0  0
  -19.6370  -23.0230   -7.2720 C   0  0  0  0  0  0  0  0  0  0  0  0
  -18.5710  -24.6750   -8.7290 C   0  0  0  0  0  0  0  0  0  0  0  0
  -15.5600  -24.3680   -7.6690 C   0  0  0  0  0  0  0  0  0  0  0  0
  2 16  1  0
  4  9  1  0
  5  1  1  0
  7  9  2  0
  8 18  1  0
  8  3  2  0
  9  6  1  0
 10 20  2  0
 11  4  2  0
 12 19  2  0
 12 10  1  0
 13  3  1  0
 13  1  1  0
 14 11  1  0
 14 18  2  0
 16  5  1  0
 16 15  1  0
 17 16  1  0
 18  7  1  0
 19  8  1  0
 20 17  1  0
 20 13  1  0
M  END
$$$$

     RDKit          3D

 27 30  0  0  0  0  0  0  0  0999 V2000
  -16.7080  -25.9520   -8.9420 C   0  0  0  0  0  0  0  0  0  0  0  0
  -10.2860  -25.2480   -7.3270 C   0  0  0  0  0  0  0  0  0  0  0  0
  -14.6500  -25.4040   -8.2270 C   0  0  0  0  0  0  0  0  0  0  0  0
  -21.9550  -21.3880   -7.1460 C   0  0  0  0  0  0  0  0  0  0  0  0
   -9.2990  -25.2860   -8.3230 F   0  0  0  0  0  0  0  0  0  0  0  0
  -20.0940  -23.0790   -8.3550 N   0  0  0  0  0  0  0  0  0  0  0  0
  -12.3960  -25.6290   -7.1360 C   0  0  0  0  0  0  0  0  0  0  0  0
   -9.9480  -24.3340   -6.3410 C   0  0  0  0  0  0  0  0  0  0  0  0
  -18.6550  -24.8000   -9.0150 C   0  0  0  0  0  0  0  0  0  0  0  0
  -17.3790  -24.6100   -7.9230 C   0  0  0  0  0  0  0  0  0  0  0  0
  -14.0220  -25.4530   -7.9130 C   0  0  0  0  0  0  0  0  0  0  0  0
  -15.7610  -24.8380   -8.9610 C   0  0  0  0  0  0  0  0  0  0  0  0
  -20.4540  -24.0750   -8.7310 N   0  0  0  0  0  0  0  0  0  0  0  0
  -19.9260  -25.1350   -8.9990 N   0  0  0  0  0  0  0  0  0  0  0  0
  -23.3210  -18.8950   -6.7650 C   0  0  0  0  0  0  0  0  0  0  0  0
  -10.8460  -23.4820   -5.4190 C   0  0  0  0  0  0  0  0  0  0  0  0
  -22.7420  -20.8560   -8.1420 C   0  0  0  0  0  0  0  0  0  0  0  0
  -12.2860  -23.9180   -5.5950 C   0  0  0  0  0  0  0  0  0  0  0  0
  -11.1640  -25.8030   -7.7570 N   0  0  0  0  0  0  0  0  0  0  0  0
  -25.6650  -19.7930   -6.3280 C   0  0  0  0  0  0  0  0  0  0  0  0
  -10.4320  -22.9170   -4.4440 O   0  0  0  0  0  0  0  0  0  0  0  0
  -24.2420  -21.3060   -7.5150 C   0  0  0  0  0  0  0  0  0  0  0  0
  -23.9850  -20.6650   -6.5900 C   0  0  0  0  0  0  0  0  0  0  0  0
  -20.5800  -21.7870   -7.5310 C   0  0  0  0  0  0  0  0  0  0  0  0
  -21.5910  -19.6820   -6.2770 S   0  0  0  0  0  0  0  0  0  0  0  0
  -18.1860  -26.0160   -9.7070 C   0  0  0  0  0  0  0  0  0  0  0  0
  -12.5690  -24.2050   -7.0510 C   0  0  0  0  0  0  0  0  0  0  0  0
  1 26  1  0
  1 10  1  0
  2  8  1  0
  3 11  3  0
  4 24  1  0
  4 25  1  0
  5  2  1  0
  6 24  2  3
  7 11  1  0
  7 27  1  0
  8 16  1  0
  9 14  1  0
  9 10  1  0
 12  1  1  0
 12  3  1  0
 12 10  1  0
 13  6  1  0
 14 13  1  0
 15 23  1  0
 15 25  1  0
 16 21  2  0
 17 22  1  0
 17  4  1  0
 18 16  1  0
 19  2  2  0
 19  7  1  0
 22 23  1  0
 23 20  1  0
 26  9  1  0
 27 18  1  0
M  END
$$$$

     RDKit          3D

 17 18  0  0  0  0  0  0  0  0999 V2000
  -17.8890  -22.7950   -6.6230 N   0  0  0  0  0  0  0  0  0  0  0  0
  -12.6770  -24.2410   -7.3980 O   0  0  0  0  0  0  0  0  0  0  0  0
  -15.5270  -24.0570   -7.8250 C   0  0  0  0  0  0  0  0  0  0  0  0
  -21.0870  -22.7860   -7.8070 O   0  0  0  0  0  0  0  0  0  0  0  0
  -20.0070  -22.9250   -7.3570 C   0  0  0  0  0  0  0  0  0  0  0  0
  -19.2230  -22.4520   -6.3360 C   0  0  0  0  0  0  0  0  0  0  0  0
  -12.5770  -26.3400   -8.1750 O   0  0  0  0  0  0  0  0  0  0  0  0
  -15.4330  -26.2240   -8.7970 C   0  0  0  0  0  0  0  0  0  0  0  0
  -20.0380  -21.5720   -5.5580 O   0  0  0  0  0  0  0  0  0  0  0  0
  -13.2080  -25.2270   -7.9820 C   0  0  0  0  0  0  0  0  0  0  0  0
  -17.8430  -23.5460   -7.7110 N   0  0  0  0  0  0  0  0  0  0  0  0
  -17.1100  -25.7970   -8.9470 S   0  0  0  0  0  0  0  0  0  0  0  0
  -15.0870  -22.8820   -7.2130 N   0  0  0  0  0  0  0  0  0  0  0  0
  -19.5730  -24.1600   -9.4730 O   0  0  0  0  0  0  0  0  0  0  0  0
  -16.8290  -24.3080   -8.1160 C   0  0  0  0  0  0  0  0  0  0  0  0
  -19.1410  -23.5720   -8.2980 C   0  0  0  0  0  0  0  0  0  0  0  0
  -14.6820  -25.1150   -8.2290 C   0  0  0  0  0  0  0  0  0  0  0  0
  1  6  2  0
  3 13  1  0
  4  5  2  0
  5  6  1  0
  6  9  2  0
  7 10  2  0
  8 17  2  0
 10  2  1  0
 11  1  1  0
 12  8  1  0
 12 15  1  0
 14 16  2  0
 15  3  2  0
 15 11  1  0
 16 11  1  0
 16  5  1  0
 17 10  1  0
 17  3  1  0
M  END
$$$$

     RDKit          3D

 10 11  0  0  0  0  0  0  0  0999 V2000
  -19.5760  -23.6290   -8.7890 S   0  0  0  0  0  0  0  0  0  0  0  0
  -17.9950  -21.5230   -7.3280 C   0  0  0  0  0  0  0  0  0  0  0  0
  -19.2240  -26.2150   -9.7450 N   0  0  0  0  0  0  0  0  0  0  0  0
  -19.4540  -19.8350   -6.4100 O   0  0  0  0  0  0  0  0  0  0  0  0
  -19.3900  -21.0460   -7.0920 C   0  0  0  0  0  0  0  0  0  0  0  0
  -18.1950  -22.8150   -7.9890 C   0  0  0  0  0  0  0  0  0  0  0  0
  -17.1860  -23.7440   -8.1080 C   0  0  0  0  0  0  0  0  0  0  0  0
  -18.7000  -25.0560   -9.2370 C   0  0  0  0  0  0  0  0  0  0  0  0
  -17.4240  -24.8640   -8.8350 N   0  0  0  0  0  0  0  0  0  0  0  0
  -18.4470  -21.7520   -6.0700 O   0  0  0  0  0  0  0  0  0  0  0  0
  1  6  1  0
  2  6  1  0
  2  5  1  0
  2 10  1  0
  3  8  1  0
  5  4  1  0
  5 10  1  0
  7  6  2  0
  8  9  2  0
  8  1  1  0
  9  7  1  0
M  END
$$$$

     RDKit          3D

 12 13  0  0  0  0  0  0  0  0999 V2000
  -15.0930  -22.7930   -6.6330 C   0  0  0  0  0  0  0  0  0  0  0  0
  -18.2660  -25.5750   -8.9360 N   0  0  0  0  0  0  0  0  0  0  0  0
  -18.0130  -24.4270   -8.1970 C   0  0  0  0  0  0  0  0  0  0  0  0
  -16.5970  -23.1540   -6.6190 N   0  0  0  0  0  0  0  0  0  0  0  0
  -19.4770  -25.4180   -9.4160 O   0  0  0  0  0  0  0  0  0  0  0  0
  -19.3520  -22.4370   -7.7330 O   0  0  0  0  0  0  0  0  0  0  0  0
  -16.7720  -23.4260   -5.1200 C   0  0  0  0  0  0  0  0  0  0  0  0
  -14.5970  -23.7490   -7.3600 C   0  0  0  0  0  0  0  0  0  0  0  0
  -15.5770  -24.4850   -7.8170 C   0  0  0  0  0  0  0  0  0  0  0  0
  -16.7900  -24.0500   -7.5550 C   0  0  0  0  0  0  0  0  0  0  0  0
  -19.9710  -24.2060   -9.0080 N   0  0  0  0  0  0  0  0  0  0  0  0
  -19.1350  -23.5330   -8.2440 C   0  0  0  0  0  0  0  0  0  0  0  0
  1  4  1  0
  2  3  2  0
  3 10  1  0
  4  7  1  0
  5 11  1  0
  5  2  1  0
  8  1  1  0
  9 10  2  0
  9  8  1  0
 10  4  1  0
 11 12  2  0
 12  3  1  0
 12  6  2  0
M  END
$$$$

     RDKit          3D

 18 20  0  0  0  0  0  0  0  0999 V2000
  -17.4250  -22.8590   -7.0870 C   0  0  0  0  0  0  0  0  0  0  0  0
  -14.3480  -21.7480   -5.7290 O   0  0  0  0  0  0  0  0  0  0  0  0
  -14.7250  -24.3750   -8.8210 C   0  0  0  0  0  0  0  0  0  0  0  0
  -15.1770  -22.9810   -6.6300 N   0  0  0  0  0  0  0  0  0  0  0  0
  -15.5500  -23.8140   -7.9460 C   0  0  0  0  0  0  0  0  0  0  0  0
  -16.7120  -25.6970   -9.4460 C   0  0  0  0  0  0  0  0  0  0  0  0
  -18.7180  -22.4670   -7.0070 N   0  0  0  0  0  0  0  0  0  0  0  0
  -19.0460  -21.8980   -5.7800 C   0  0  0  0  0  0  0  0  0  0  0  0
  -16.4630  -22.9080   -6.0700 N   0  0  0  0  0  0  0  0  0  0  0  0
  -18.7200  -22.3840   -4.6550 N   0  0  0  0  0  0  0  0  0  0  0  0
  -19.7420  -21.0740   -5.6470 N   0  0  0  0  0  0  0  0  0  0  0  0
  -17.4530  -24.9910   -8.5850 C   0  0  0  0  0  0  0  0  0  0  0  0
  -14.2960  -22.5940   -5.0040 C   0  0  0  0  0  0  0  0  0  0  0  0
  -16.8500  -23.9790   -7.9380 C   0  0  0  0  0  0  0  0  0  0  0  0
  -15.4510  -25.4480   -9.5150 C   0  0  0  0  0  0  0  0  0  0  0  0
  -20.2210  -21.1850   -4.5820 N   0  0  0  0  0  0  0  0  0  0  0  0
  -19.3530  -21.0900   -4.0650 N   0  0  0  0  0  0  0  0  0  0  0  0
  -14.4380  -23.0500   -3.9700 O   0  0  0  0  0  0  0  0  0  0  0  0
  1  7  1  0
  1  9  2  0
  2 13  1  0
  3  5  1  0
  4  9  1  0
  4  2  1  0
  5 14  2  0
  5  4  1  0
  6 12  2  0
  7  8  1  0
  8 11  2  0
  8 10  2  0
 10 17  1  0
 11 16  1  0
 12 14  1  0
 13 18  2  0
 14  1  1  0
 15  6  1  0
 15  3  2  0
 16 17  1  0
M  END
$$$$
