
     RDKit          3D

 11 11  0  0  0  0  0  0  0  0999 V2000
    6.3170  -19.0800  -48.3940 C   0  0  0  0  0  0  0  0  0  0  0  0
    6.6620  -19.7870  -46.1980 O   0  0  0  0  0  0  0  0  0  0  0  0
    4.4650  -19.5320  -46.9680 C   0  0  0  0  0  0  0  0  0  0  0  0
    5.4530  -18.9950  -49.4810 C   0  0  0  0  0  0  0  0  0  0  0  0
    4.1120  -19.1610  -49.2470 C   0  0  0  0  0  0  0  0  0  0  0  0
    5.8630  -19.4420  -47.1620 C   0  0  0  0  0  0  0  0  0  0  0  0
    3.6440  -19.4360  -48.0580 C   0  0  0  0  0  0  0  0  0  0  0  0
    9.0140  -19.4800  -45.6650 C   0  0  0  0  0  0  0  0  0  0  0  0
    7.5950  -18.8250  -48.6400 O   0  0  0  0  0  0  0  0  0  0  0  0
    7.6980  -18.9460  -45.6570 C   0  0  0  0  0  0  0  0  0  0  0  0
    9.2430  -20.3310  -44.4590 O   0  0  0  0  0  0  0  0  0  0  0  0
  1  6  1  0
  2 10  1  0
  4  5  1  0
  4  1  2  0
  5  7  2  0
  6  3  2  0
  6  2  1  0
  7  3  1  0
  8 10  1  0
  8 11  1  0
  9  1  1  0
M  END
$$$$

     RDKit          3D

  8  7  0  0  0  0  0  0  0  0999 V2000
    5.8760  -19.5100  -45.1690 O   0  0  0  0  0  0  0  0  0  0  0  0
    4.6880  -20.7780  -46.5410 O   0  0  0  0  0  0  0  0  0  0  0  0
    4.4240  -18.9270  -47.7810 C   0  0  0  0  0  0  0  0  0  0  0  0
    4.7750  -19.1970  -49.2740 C   0  0  0  0  0  0  0  0  0  0  0  0
    5.3780  -19.7000  -46.2060 C   0  0  0  0  0  0  0  0  0  0  0  0
    5.3330  -18.9590  -47.3110 C   0  0  0  0  0  0  0  0  0  0  0  0
    6.1850  -19.3600  -49.6880 C   0  0  0  0  0  0  0  0  0  0  0  0
    3.9390  -19.5580  -50.2280 O   0  0  0  0  0  0  0  0  0  0  0  0
  2  5  2  0
  3  6  1  0
  4  7  1  0
  4  3  1  0
  5  1  1  0
  6  5  1  0
  8  4  1  0
M  END
$$$$

     RDKit          3D

 14 14  0  0  0  0  0  0  0  0999 V2000
    8.7020  -19.2560  -45.0170 C   0  0  0  0  0  0  0  0  0  0  0  0
    5.0490  -20.2750  -45.0610 O   0  0  0  0  0  0  0  0  0  0  0  0
    3.0040  -19.4310  -48.0340 C   0  0  0  0  0  0  0  0  0  0  0  0
    7.6550  -18.9550  -47.1820 C   0  0  0  0  0  0  0  0  0  0  0  0
    4.0160  -19.3360  -47.6120 C   0  0  0  0  0  0  0  0  0  0  0  0
    5.8940  -19.5190  -49.0840 C   0  0  0  0  0  0  0  0  0  0  0  0
    6.2630  -19.8460  -45.3150 C   0  0  0  0  0  0  0  0  0  0  0  0
    5.4430  -19.4470  -47.7760 C   0  0  0  0  0  0  0  0  0  0  0  0
    5.8240  -19.5090  -51.3510 C   0  0  0  0  0  0  0  0  0  0  0  0
    7.4290  -19.5970  -44.4290 C   0  0  0  0  0  0  0  0  0  0  0  0
    5.4630  -18.9320  -50.0430 O   0  0  0  0  0  0  0  0  0  0  0  0
    3.1970  -19.4750  -49.0000 C   0  0  0  0  0  0  0  0  0  0  0  0
    6.3990  -19.3360  -46.7230 C   0  0  0  0  0  0  0  0  0  0  0  0
    8.8160  -18.9120  -46.3570 C   0  0  0  0  0  0  0  0  0  0  0  0
  1 10  1  0
  3  5  1  0
  4 13  2  0
  4 14  1  0
  7  2  1  0
  7 10  2  0
  8  6  1  0
  8  5  1  0
  8 13  1  0
  9 11  1  0
 11  6  1  0
 12  3  1  0
 13  7  1  0
 14  1  2  0
M  END
$$$$

     RDKit          3D

 12 13  0  0  0  0  0  0  0  0999 V2000
    3.2420  -19.2640  -48.8620 C   0  0  0  0  0  0  0  0  0  0  0  0
    8.9610  -20.1210  -44.3000 O   0  0  0  0  0  0  0  0  0  0  0  0
    5.0190  -19.7560  -47.0090 N   0  0  0  0  0  0  0  0  0  0  0  0
    6.4070  -19.3900  -46.8150 C   0  0  0  0  0  0  0  0  0  0  0  0
    7.0750  -19.0940  -48.2550 S   0  0  0  0  0  0  0  0  0  0  0  0
    7.0720  -19.3400  -45.5340 N   0  0  0  0  0  0  0  0  0  0  0  0
    4.1530  -19.8010  -51.2070 C   0  0  0  0  0  0  0  0  0  0  0  0
    4.7350  -19.4240  -48.4230 C   0  0  0  0  0  0  0  0  0  0  0  0
    8.5380  -19.3500  -45.4270 C   0  0  0  0  0  0  0  0  0  0  0  0
    5.5260  -19.1640  -50.5880 C   0  0  0  0  0  0  0  0  0  0  0  0
    2.9080  -19.5530  -50.2870 C   0  0  0  0  0  0  0  0  0  0  0  0
    5.6130  -19.2820  -49.1580 C   0  0  0  0  0  0  0  0  0  0  0  0
  1  8  1  0
  3  4  2  0
  4  6  1  0
  5  4  1  0
  6  9  1  0
  7 10  1  0
  7 11  1  0
  8  3  2  0
  9  2  1  0
 11  1  1  0
 12 10  1  0
 12  8  1  0
 12  5  1  0
M  END
$$$$

     RDKit          3D

 18 20  0  0  0  0  0  0  0  0999 V2000
    2.6010  -19.2980  -47.0740 N   0  0  0  0  0  0  0  0  0  0  0  0
    9.4150  -19.1810  -47.3380 C   0  0  0  0  0  0  0  0  0  0  0  0
    1.1800  -19.7460  -46.9450 C   0  0  0  0  0  0  0  0  0  0  0  0
    5.2160  -19.1090  -49.8250 C   0  0  0  0  0  0  0  0  0  0  0  0
    5.2480  -19.2760  -47.3440 C   0  0  0  0  0  0  0  0  0  0  0  0
    9.4720  -19.8530  -44.9850 N   0  0  0  0  0  0  0  0  0  0  0  0
    8.8120  -18.9870  -48.5940 N   0  0  0  0  0  0  0  0  0  0  0  0
    7.3650  -19.4530  -46.1250 N   0  0  0  0  0  0  0  0  0  0  0  0
    3.0840  -19.1110  -48.4320 C   0  0  0  0  0  0  0  0  0  0  0  0
    2.3330  -18.8510  -49.3490 O   0  0  0  0  0  0  0  0  0  0  0  0
    3.3650  -20.1010  -46.1580 C   0  0  0  0  0  0  0  0  0  0  0  0
    4.6950  -19.4400  -45.9310 C   0  0  0  0  0  0  0  0  0  0  0  0
    6.6210  -19.0620  -49.7860 C   0  0  0  0  0  0  0  0  0  0  0  0
    6.7530  -19.3170  -47.3510 C   0  0  0  0  0  0  0  0  0  0  0  0
    7.3920  -19.1100  -48.6140 C   0  0  0  0  0  0  0  0  0  0  0  0
   10.8570  -20.4100  -45.1020 C   0  0  0  0  0  0  0  0  0  0  0  0
    8.7820  -19.4840  -46.1350 C   0  0  0  0  0  0  0  0  0  0  0  0
    4.5500  -19.1940  -48.5640 C   0  0  0  0  0  0  0  0  0  0  0  0
  1  3  1  0
  1 11  1  0
  2 17  1  0
  4 13  2  0
  4 18  1  0
  5 12  1  0
  7  2  1  0
  9  1  1  0
 10  9  2  0
 11 12  1  0
 13 15  1  0
 14  5  1  0
 14  8  2  0
 15  7  2  0
 15 14  1  0
 16  6  1  0
 17  8  2  0
 17  6  1  0
 18  9  1  0
 18  5  2  0
M  END
$$$$

     RDKit          3D

 13 13  0  0  0  0  0  0  0  0999 V2000
    2.7590  -19.5250  -48.4810 C   0  0  0  0  0  0  0  0  0  0  0  0
    4.2510  -19.7260  -51.0590 C   0  0  0  0  0  0  0  0  0  0  0  0
    6.9860  -19.4390  -45.9610 C   0  0  0  0  0  0  0  0  0  0  0  0
    7.8100  -19.4780  -44.9990 N   0  0  0  0  0  0  0  0  0  0  0  0
    4.7250  -19.4770  -49.8870 C   0  0  0  0  0  0  0  0  0  0  0  0
    7.3210  -19.1490  -47.1300 N   0  0  0  0  0  0  0  0  0  0  0  0
    4.9040  -19.4230  -48.3090 C   0  0  0  0  0  0  0  0  0  0  0  0
    4.7190  -19.4900  -46.9690 C   0  0  0  0  0  0  0  0  0  0  0  0
    5.5360  -19.5480  -45.8800 N   0  0  0  0  0  0  0  0  0  0  0  0
    6.6640  -19.0630  -48.2920 C   0  0  0  0  0  0  0  0  0  0  0  0
    2.8800  -19.5650  -51.3480 C   0  0  0  0  0  0  0  0  0  0  0  0
    2.2240  -19.1250  -50.0120 C   0  0  0  0  0  0  0  0  0  0  0  0
    9.2890  -19.3480  -44.8980 C   0  0  0  0  0  0  0  0  0  0  0  0
  2  5  2  0
  3  9  2  0
  3  4  1  0
  4 13  1  0
  5  7  2  0
  6  3  2  0
  7 10  1  0
  7  8  1  0
  8  9  1  0
 10  6  1  0
 11  2  1  0
 11 12  1  0
 12  1  1  0
M  END
$$$$

     RDKit          3D

 16 18  0  0  0  0  0  0  0  0999 V2000
    4.9650  -18.5560  -52.2940 C   0  0  0  0  0  0  0  0  0  0  0  0
    4.0020  -19.5120  -47.5270 C   0  0  0  0  0  0  0  0  0  0  0  0
    6.2290  -19.0230  -49.2820 C   0  0  0  0  0  0  0  0  0  0  0  0
    6.5030  -19.6940  -45.0030 C   0  0  0  0  0  0  0  0  0  0  0  0
    6.8070  -19.0010  -48.1740 C   0  0  0  0  0  0  0  0  0  0  0  0
    6.0180  -19.3160  -47.1020 C   0  0  0  0  0  0  0  0  0  0  0  0
    5.3500  -19.1510  -50.9780 N   0  0  0  0  0  0  0  0  0  0  0  0
    7.3890  -19.1350  -45.9120 O   0  0  0  0  0  0  0  0  0  0  0  0
    4.0720  -19.4530  -48.9750 C   0  0  0  0  0  0  0  0  0  0  0  0
    5.0630  -19.4790  -46.6130 C   0  0  0  0  0  0  0  0  0  0  0  0
    2.6450  -19.8100  -46.9290 C   0  0  0  0  0  0  0  0  0  0  0  0
    2.3160  -19.9580  -45.8720 O   0  0  0  0  0  0  0  0  0  0  0  0
    5.6560  -19.1970  -53.4930 C   0  0  0  0  0  0  0  0  0  0  0  0
    6.6540  -19.1640  -50.6260 O   0  0  0  0  0  0  0  0  0  0  0  0
    5.2540  -19.7920  -45.3030 O   0  0  0  0  0  0  0  0  0  0  0  0
    5.0970  -19.2110  -49.6600 C   0  0  0  0  0  0  0  0  0  0  0  0
  1  7  1  0
  2 11  1  0
  3  5  1  0
  5  6  2  0
  6 10  1  0
  6  8  1  0
  7 14  1  0
  7 16  1  0
  8  4  1  0
  9  2  2  0
 10  2  1  0
 10 15  1  0
 11 12  2  0
 13  1  1  0
 14  3  1  0
 15  4  1  0
 16  3  2  0
 16  9  1  0
M  END
$$$$

     RDKit          3D

 13 13  0  0  0  0  0  0  0  0999 V2000
    7.7590  -19.3380  -46.0680 C   0  0  0  0  0  0  0  0  0  0  0  0
    6.1790  -19.0860  -47.7270 C   0  0  0  0  0  0  0  0  0  0  0  0
    7.4310  -19.0820  -47.4030 C   0  0  0  0  0  0  0  0  0  0  0  0
    5.9590  -19.0010  -49.1390 C   0  0  0  0  0  0  0  0  0  0  0  0
    4.0950  -20.4500  -49.0170 F   0  0  0  0  0  0  0  0  0  0  0  0
    5.2160  -19.2040  -46.7420 C   0  0  0  0  0  0  0  0  0  0  0  0
    3.7330  -18.4060  -49.4610 F   0  0  0  0  0  0  0  0  0  0  0  0
    5.4970  -19.5990  -45.5020 N   0  0  0  0  0  0  0  0  0  0  0  0
    5.4120  -19.4120  -51.5300 O   0  0  0  0  0  0  0  0  0  0  0  0
    4.4910  -19.4820  -49.2310 C   0  0  0  0  0  0  0  0  0  0  0  0
    6.7920  -19.6450  -45.1410 C   0  0  0  0  0  0  0  0  0  0  0  0
    6.1930  -19.3350  -50.2380 C   0  0  0  0  0  0  0  0  0  0  0  0
    9.1100  -19.3900  -45.6290 O   0  0  0  0  0  0  0  0  0  0  0  0
  1 13  1  0
  1 11  1  0
  2  3  1  0
  2  6  2  0
  3  1  2  0
  4 12  1  0
  4  2  1  0
  6  8  1  0
  7 10  1  0
  8 11  2  0
  9 12  1  0
 10  4  1  0
 10  5  1  0
M  END
$$$$

     RDKit          3D

 17 19  0  0  0  0  0  0  0  0999 V2000
    5.0560  -19.4810  -45.2460 N   0  0  0  0  0  0  0  0  0  0  0  0
    5.4760  -19.1840  -51.0210 N   0  0  0  0  0  0  0  0  0  0  0  0
    4.9200  -19.2980  -47.4940 C   0  0  0  0  0  0  0  0  0  0  0  0
    2.0880  -19.6030  -48.1260 C   0  0  0  0  0  0  0  0  0  0  0  0
    5.6640  -19.2410  -49.6510 C   0  0  0  0  0  0  0  0  0  0  0  0
    7.5100  -19.4930  -45.1370 N   0  0  0  0  0  0  0  0  0  0  0  0
    4.3880  -19.1300  -51.2110 C   0  0  0  0  0  0  0  0  0  0  0  0
    3.0570  -19.3700  -49.2930 C   0  0  0  0  0  0  0  0  0  0  0  0
    6.3050  -19.4050  -45.7890 C   0  0  0  0  0  0  0  0  0  0  0  0
    3.3640  -18.9210  -52.0470 C   0  0  0  0  0  0  0  0  0  0  0  0
    2.0840  -19.3830  -50.4440 C   0  0  0  0  0  0  0  0  0  0  0  0
    4.1190  -19.4320  -46.3860 N   0  0  0  0  0  0  0  0  0  0  0  0
    6.2520  -19.2740  -47.1230 C   0  0  0  0  0  0  0  0  0  0  0  0
    7.3340  -19.0700  -47.9580 C   0  0  0  0  0  0  0  0  0  0  0  0
    1.9670  -19.1050  -51.6450 C   0  0  0  0  0  0  0  0  0  0  0  0
    7.0050  -19.0860  -49.3190 C   0  0  0  0  0  0  0  0  0  0  0  0
    4.5490  -19.2650  -48.8670 C   0  0  0  0  0  0  0  0  0  0  0  0
  2  5  2  3
  3 13  1  0
  3 12  2  0
  5 16  1  0
  5 17  1  0
  7  2  1  0
  8 17  2  3
  8  4  1  0
  9  1  2  0
  9  6  1  0
 10 15  1  0
 10  7  2  3
 11  8  1  0
 12  1  1  0
 13  9  1  0
 14 13  2  0
 15 11  1  0
 16 14  1  0
 17  3  1  0
M  END
$$$$

     RDKit          3D

 13 15  0  0  0  0  0  0  0  0999 V2000
    3.2580  -19.4220  -48.1610 C   0  0  0  0  0  0  0  0  0  0  0  0
    3.9430  -19.2130  -50.8000 C   0  0  0  0  0  0  0  0  0  0  0  0
    4.7450  -19.7310  -44.8980 O   0  0  0  0  0  0  0  0  0  0  0  0
    6.5900  -19.5150  -45.8260 N   0  0  0  0  0  0  0  0  0  0  0  0
    7.1060  -19.1920  -47.0900 C   0  0  0  0  0  0  0  0  0  0  0  0
    4.8940  -19.2250  -46.9380 N   0  0  0  0  0  0  0  0  0  0  0  0
    2.5440  -19.2260  -50.5120 C   0  0  0  0  0  0  0  0  0  0  0  0
    4.9490  -19.2110  -49.7490 C   0  0  0  0  0  0  0  0  0  0  0  0
    8.8120  -19.1250  -46.5480 Cl  0  0  0  0  0  0  0  0  0  0  0  0
    5.3500  -19.5560  -45.8090 C   0  0  0  0  0  0  0  0  0  0  0  0
    2.2790  -19.3860  -49.1780 C   0  0  0  0  0  0  0  0  0  0  0  0
    5.8750  -19.1730  -47.6950 C   0  0  0  0  0  0  0  0  0  0  0  0
    4.6630  -19.3030  -48.3960 C   0  0  0  0  0  0  0  0  0  0  0  0
  2  7  1  0
  2  8  2  0
  4 10  2  0
  5  9  1  0
  5  4  2  0
  6 10  1  0
  7 11  2  0
 10  3  2  0
 11  1  1  0
 12  5  1  0
 12  6  1  0
 13  8  1  0
 13  1  1  0
 13 12  1  0
 13  6  1  0
M  END
$$$$

     RDKit          3D

 12 13  0  0  0  0  0  0  0  0999 V2000
    5.0200  -19.9470  -45.1390 O   0  0  0  0  0  0  0  0  0  0  0  0
    2.9220  -19.6610  -46.3620 O   0  0  0  0  0  0  0  0  0  0  0  0
    4.0660  -18.8710  -50.4360 C   0  0  0  0  0  0  0  0  0  0  0  0
    5.4140  -19.0990  -50.7970 C   0  0  0  0  0  0  0  0  0  0  0  0
    5.5940  -18.8290  -52.2160 F   0  0  0  0  0  0  0  0  0  0  0  0
    6.4120  -19.8780  -48.8280 C   0  0  0  0  0  0  0  0  0  0  0  0
    4.1790  -19.5560  -47.0540 C   0  0  0  0  0  0  0  0  0  0  0  0
    3.3240  -19.0720  -49.3480 C   0  0  0  0  0  0  0  0  0  0  0  0
    3.9180  -19.7900  -48.4190 C   0  0  0  0  0  0  0  0  0  0  0  0
    5.2660  -19.7410  -48.1960 C   0  0  0  0  0  0  0  0  0  0  0  0
    5.2060  -19.8740  -45.9660 C   0  0  0  0  0  0  0  0  0  0  0  0
    6.4750  -19.5870  -50.2130 C   0  0  0  0  0  0  0  0  0  0  0  0
  3  8  1  0
  4  3  1  0
  4 12  2  0
  5  4  1  0
  7  2  1  0
  7 11  1  0
  9  8  1  0
  9 10  1  0
  9  7  1  0
 10  6  1  0
 10  7  1  0
 11  1  2  0
 12  6  1  0
M  END
$$$$

     RDKit          3D

 11 12  0  0  0  0  0  0  0  0999 V2000
    5.5620  -19.8100  -45.4860 N   0  0  0  0  0  0  0  0  0  0  0  0
    3.5980  -20.2320  -46.4330 N   0  0  0  0  0  0  0  0  0  0  0  0
    6.8510  -19.5750  -45.8200 C   0  0  0  0  0  0  0  0  0  0  0  0
    7.7750  -19.5000  -45.0450 N   0  0  0  0  0  0  0  0  0  0  0  0
    7.7990  -19.0890  -48.0590 C   0  0  0  0  0  0  0  0  0  0  0  0
    5.2660  -19.6460  -49.0760 C   0  0  0  0  0  0  0  0  0  0  0  0
    7.5610  -19.0820  -49.5170 C   0  0  0  0  0  0  0  0  0  0  0  0
    6.2550  -19.3530  -49.9220 C   0  0  0  0  0  0  0  0  0  0  0  0
    5.5100  -19.7010  -47.6730 C   0  0  0  0  0  0  0  0  0  0  0  0
    4.8360  -20.0090  -46.6500 N   0  0  0  0  0  0  0  0  0  0  0  0
    6.8100  -19.4030  -47.2340 C   0  0  0  0  0  0  0  0  0  0  0  0
  3  1  2  0
  3  4  1  0
  5 11  1  0
  6  9  1  0
  7  5  2  0
  8  7  1  0
  8  6  2  0
  9 11  2  0
  9 10  1  0
 10  2  1  0
 10  1  1  0
 11  3  1  0
M  END
$$$$

     RDKit          3D

  4  3  0  0  0  0  0  0  0  0999 V2000
    6.5930  -19.9260  -45.0320 O   0  0  0  0  0  0  0  0  0  0  0  0
    6.1600  -20.2400  -47.3680 C   0  0  0  0  0  0  0  0  0  0  0  0
    4.4860  -20.3850  -45.5660 O   0  0  0  0  0  0  0  0  0  0  0  0
    5.7800  -20.1410  -45.8940 C   0  0  0  0  0  0  0  0  0  0  0  0
  2  4  1  0
  4  3  2  0
  4  1  1  0
M  END
$$$$

     RDKit          3D

  9  9  0  0  0  0  0  0  0  0999 V2000
    6.3030  -19.4980  -46.1570 C   0  0  0  0  0  0  0  0  0  0  0  0
    7.6070  -19.3190  -45.6060 C   0  0  0  0  0  0  0  0  0  0  0  0
    4.2920  -20.0550  -48.9500 N   0  0  0  0  0  0  0  0  0  0  0  0
    8.7110  -18.9990  -46.4170 C   0  0  0  0  0  0  0  0  0  0  0  0
    6.0800  -19.1980  -47.4920 C   0  0  0  0  0  0  0  0  0  0  0  0
    5.2580  -19.8400  -45.2830 O   0  0  0  0  0  0  0  0  0  0  0  0
    8.4990  -18.8980  -47.7670 C   0  0  0  0  0  0  0  0  0  0  0  0
    4.7370  -19.1270  -48.0670 C   0  0  0  0  0  0  0  0  0  0  0  0
    7.2220  -18.9320  -48.3200 C   0  0  0  0  0  0  0  0  0  0  0  0
  1  2  1  0
  1  6  1  0
  3  8  1  0
  4  2  2  0
  5  1  2  0
  7  4  1  0
  8  5  1  0
  9  7  2  0
  9  5  1  0
M  END
$$$$

     RDKit          3D

 17 18  0  0  0  0  0  0  0  0999 V2000
    7.3710  -19.1920  -47.9070 C   0  0  0  0  0  0  0  0  0  0  0  0
    8.4810  -19.7680  -44.4500 O   0  0  0  0  0  0  0  0  0  0  0  0
    5.5250  -19.2670  -49.5780 C   0  0  0  0  0  0  0  0  0  0  0  0
    3.5370  -19.6810  -50.9310 C   0  0  0  0  0  0  0  0  0  0  0  0
    7.5170  -19.5000  -45.3030 C   0  0  0  0  0  0  0  0  0  0  0  0
    6.2360  -19.4680  -44.9490 N   0  0  0  0  0  0  0  0  0  0  0  0
    4.1440  -19.7360  -49.7030 C   0  0  0  0  0  0  0  0  0  0  0  0
    9.7440  -19.1020  -44.0280 C   0  0  0  0  0  0  0  0  0  0  0  0
    6.1710  -18.9050  -50.6270 C   0  0  0  0  0  0  0  0  0  0  0  0
    5.5920  -18.9600  -51.9150 C   0  0  0  0  0  0  0  0  0  0  0  0
    6.0420  -19.2450  -48.2090 C   0  0  0  0  0  0  0  0  0  0  0  0
    9.3650  -19.4520  -46.6560 F   0  0  0  0  0  0  0  0  0  0  0  0
    5.1550  -19.3420  -45.8270 C   0  0  0  0  0  0  0  0  0  0  0  0
    4.0290  -19.3170  -45.5160 O   0  0  0  0  0  0  0  0  0  0  0  0
    5.3930  -19.2700  -47.1450 N   0  0  0  0  0  0  0  0  0  0  0  0
    7.8180  -19.3760  -46.6520 C   0  0  0  0  0  0  0  0  0  0  0  0
    4.2290  -19.3300  -52.0250 C   0  0  0  0  0  0  0  0  0  0  0  0
  1 16  2  0
  2  8  1  0
  3 11  1  0
  4  7  2  0
  5  6  2  0
  5  2  1  0
  7  3  1  0
  9  3  2  0
 10  9  1  0
 11  1  1  0
 11 15  2  0
 12 16  1  0
 13 14  2  0
 13  6  2  0
 15 13  2  0
 16  5  1  0
 17 10  2  0
 17  4  1  0
M  END
$$$$

     RDKit          3D

 22 24  0  0  0  0  0  0  0  0999 V2000
   11.8180  -21.0480  -44.3680 O   0  0  0  0  0  0  0  0  0  0  0  0
   11.4000  -18.9440  -45.0680 C   0  0  0  0  0  0  0  0  0  0  0  0
    7.6560  -19.1050  -45.1060 C   0  0  0  0  0  0  0  0  0  0  0  0
    2.6330  -19.7220  -46.1400 N   0  0  0  0  0  0  0  0  0  0  0  0
    3.7250  -19.7000  -45.4550 N   0  0  0  0  0  0  0  0  0  0  0  0
    5.8870  -19.5400  -46.8300 C   0  0  0  0  0  0  0  0  0  0  0  0
   13.4780  -19.7070  -44.8320 O   0  0  0  0  0  0  0  0  0  0  0  0
    5.7040  -19.6120  -49.4260 N   0  0  0  0  0  0  0  0  0  0  0  0
    5.0090  -19.8110  -45.7700 C   0  0  0  0  0  0  0  0  0  0  0  0
    8.9480  -18.9960  -44.6460 C   0  0  0  0  0  0  0  0  0  0  0  0
    4.7140  -19.6550  -50.4190 C   0  0  0  0  0  0  0  0  0  0  0  0
   12.2400  -19.9130  -44.6670 C   0  0  0  0  0  0  0  0  0  0  0  0
    2.2430  -19.6190  -50.3630 O   0  0  0  0  0  0  0  0  0  0  0  0
    9.6820  -19.2060  -46.9700 C   0  0  0  0  0  0  0  0  0  0  0  0
    2.5850  -19.6070  -47.5100 C   0  0  0  0  0  0  0  0  0  0  0  0
    3.7590  -19.5700  -48.3560 C   0  0  0  0  0  0  0  0  0  0  0  0
    3.4680  -19.6010  -49.7640 C   0  0  0  0  0  0  0  0  0  0  0  0
    9.9790  -19.0960  -45.5460 C   0  0  0  0  0  0  0  0  0  0  0  0
    5.1770  -19.5540  -48.1950 C   0  0  0  0  0  0  0  0  0  0  0  0
    8.4180  -19.3420  -47.4120 C   0  0  0  0  0  0  0  0  0  0  0  0
    7.3180  -19.2860  -46.5630 C   0  0  0  0  0  0  0  0  0  0  0  0
    1.4100  -19.5900  -48.1930 O   0  0  0  0  0  0  0  0  0  0  0  0
  2 12  1  0
  3 10  1  0
  4  5  1  0
  6 21  1  0
  6  9  1  0
  7 12  2  0
  8 19  2  0
  9  5  1  0
 11 17  2  0
 11  8  1  0
 12  1  1  0
 13 17  1  0
 14 18  1  0
 15  4  2  0
 16 17  1  0
 16 19  1  0
 16 15  1  0
 18  2  1  0
 18 10  2  0
 19  6  1  0
 20 14  2  0
 20 21  1  0
 21  3  2  0
 22 15  2  0
M  END
$$$$

     RDKit          3D

 12 14  0  0  0  0  0  0  0  0999 V2000
    6.7890  -19.4870  -46.9240 C   0  0  0  0  0  0  0  0  0  0  0  0
    6.5530  -19.0720  -49.5900 C   0  0  0  0  0  0  0  0  0  0  0  0
    7.9080  -19.1590  -47.6570 N   0  0  0  0  0  0  0  0  0  0  0  0
    4.5930  -19.6650  -46.5470 C   0  0  0  0  0  0  0  0  0  0  0  0
    3.8470  -19.5270  -48.6740 C   0  0  0  0  0  0  0  0  0  0  0  0
    7.7580  -18.9970  -49.0010 C   0  0  0  0  0  0  0  0  0  0  0  0
    5.5680  -19.5440  -47.4530 C   0  0  0  0  0  0  0  0  0  0  0  0
    5.2760  -19.3680  -48.8090 C   0  0  0  0  0  0  0  0  0  0  0  0
    9.0510  -18.7120  -49.6580 C   0  0  0  0  0  0  0  0  0  0  0  0
    5.2660  -19.6830  -45.3250 N   0  0  0  0  0  0  0  0  0  0  0  0
    3.4570  -19.6480  -47.3720 N   0  0  0  0  0  0  0  0  0  0  0  0
    6.5950  -19.5740  -45.6160 N   0  0  0  0  0  0  0  0  0  0  0  0
  1 12  2  0
  2  6  1  0
  2  8  1  0
  3  1  2  0
  4 10  2  0
  5 11  1  0
  6  3  2  0
  7  1  1  0
  7  4  1  0
  8  5  1  0
  8  7  2  0
  9  6  1  0
 11  4  2  0
 12 10  1  0
M  END
$$$$

     RDKit          3D

 15 16  0  0  0  0  0  0  0  0999 V2000
    3.6530  -19.6080  -45.8810 N   0  0  0  0  0  0  0  0  0  0  0  0
    7.2430  -19.5530  -48.3190 C   0  0  0  0  0  0  0  0  0  0  0  0
    3.7680  -19.7270  -48.1970 C   0  0  0  0  0  0  0  0  0  0  0  0
    1.7060  -19.7520  -49.5440 C   0  0  0  0  0  0  0  0  0  0  0  0
    9.2260  -18.9710  -45.3750 N   0  0  0  0  0  0  0  0  0  0  0  0
    5.1210  -19.6350  -48.1190 C   0  0  0  0  0  0  0  0  0  0  0  0
    7.0440  -19.3750  -46.9870 C   0  0  0  0  0  0  0  0  0  0  0  0
    8.1800  -19.1930  -46.0700 C   0  0  0  0  0  0  0  0  0  0  0  0
    3.0660  -19.6820  -47.0860 N   0  0  0  0  0  0  0  0  0  0  0  0
    5.6970  -19.4660  -44.9060 N   0  0  0  0  0  0  0  0  0  0  0  0
    3.1420  -19.7150  -49.3940 N   0  0  0  0  0  0  0  0  0  0  0  0
    3.8370  -19.5590  -50.5820 C   0  0  0  0  0  0  0  0  0  0  0  0
    6.1230  -19.6650  -49.0190 N   0  0  0  0  0  0  0  0  0  0  0  0
    5.6690  -19.5050  -46.8680 C   0  0  0  0  0  0  0  0  0  0  0  0
    4.9620  -19.5370  -45.8280 C   0  0  0  0  0  0  0  0  0  0  0  0
  1 15  2  0
  2  7  1  0
  3  6  1  0
  3  9  2  0
  4 11  1  0
  6 14  1  0
  7 14  2  0
  7  8  1  0
  8  5  1  0
  9  1  1  0
 11  3  1  0
 12 11  1  0
 13  2  1  0
 13  6  2  0
 14 15  1  0
 15 10  1  0
M  END
$$$$

     RDKit          3D

 18 18  0  0  0  0  0  0  0  0999 V2000
    5.9510  -19.4880  -45.4700 O   0  0  0  0  0  0  0  0  0  0  0  0
    3.7390  -19.0820  -52.3590 O   0  0  0  0  0  0  0  0  0  0  0  0
    2.2130  -19.2230  -51.0920 N   0  0  0  0  0  0  0  0  0  0  0  0
   10.8870  -19.1000  -43.8060 C   0  0  0  0  0  0  0  0  0  0  0  0
   10.2100  -18.9740  -45.0960 C   0  0  0  0  0  0  0  0  0  0  0  0
   10.5440  -19.2440  -42.7120 O   0  0  0  0  0  0  0  0  0  0  0  0
    8.7580  -18.7410  -47.2600 O   0  0  0  0  0  0  0  0  0  0  0  0
    6.5040  -18.8650  -48.9570 C   0  0  0  0  0  0  0  0  0  0  0  0
    3.6130  -19.1180  -51.3130 N   0  0  0  0  0  0  0  0  0  0  0  0
    8.0980  -19.1470  -46.2570 C   0  0  0  0  0  0  0  0  0  0  0  0
    4.4420  -19.2280  -50.1120 C   0  0  0  0  0  0  0  0  0  0  0  0
   12.0610  -18.9900  -43.5600 O   0  0  0  0  0  0  0  0  0  0  0  0
    5.7860  -18.8900  -50.2070 C   0  0  0  0  0  0  0  0  0  0  0  0
    4.5730  -19.6510  -47.7620 C   0  0  0  0  0  0  0  0  0  0  0  0
    3.8820  -19.6730  -48.9720 C   0  0  0  0  0  0  0  0  0  0  0  0
    8.7540  -19.3180  -45.0640 N   0  0  0  0  0  0  0  0  0  0  0  0
    5.9430  -19.2570  -47.7470 C   0  0  0  0  0  0  0  0  0  0  0  0
    6.6760  -19.3270  -46.4730 C   0  0  0  0  0  0  0  0  0  0  0  0
  2  9  1  0
  4 12  2  0
  4  6  1  0
  5 16  1  0
  5  4  1  0
  7 10  2  0
  8 17  1  0
  9  3  1  0
  9 11  1  0
 10 16  1  0
 11 15  2  0
 13 11  1  0
 13  8  2  0
 14 17  2  0
 15 14  1  0
 17 18  1  0
 18 10  1  0
 18  1  2  0
M  END
$$$$

     RDKit          3D

 12 13  0  0  0  0  0  0  0  0999 V2000
    4.4000  -19.2250  -48.7760 C   0  0  0  0  0  0  0  0  0  0  0  0
    6.5870  -19.1160  -47.4890 C   0  0  0  0  0  0  0  0  0  0  0  0
    4.4980  -19.6050  -46.4220 C   0  0  0  0  0  0  0  0  0  0  0  0
    5.1000  -19.2260  -47.5330 C   0  0  0  0  0  0  0  0  0  0  0  0
    3.1230  -19.3520  -48.8970 C   0  0  0  0  0  0  0  0  0  0  0  0
    3.1540  -19.7190  -46.5530 N   0  0  0  0  0  0  0  0  0  0  0  0
    1.1560  -19.6310  -47.8760 O   0  0  0  0  0  0  0  0  0  0  0  0
    2.4640  -19.5770  -47.7620 C   0  0  0  0  0  0  0  0  0  0  0  0
    7.2190  -19.3130  -46.3750 C   0  0  0  0  0  0  0  0  0  0  0  0
    5.1890  -19.8260  -45.2390 N   0  0  0  0  0  0  0  0  0  0  0  0
    5.1000  -18.9370  -49.9280 O   0  0  0  0  0  0  0  0  0  0  0  0
    6.5210  -19.6920  -45.2960 C   0  0  0  0  0  0  0  0  0  0  0  0
  1  4  1  0
  2  9  2  0
  3 10  2  0
  4  2  1  0
  4  3  1  0
  5  1  2  0
  5  8  1  0
  6  3  2  0
  7  8  2  0
  8  6  2  0
  9 12  1  0
 11  1  1  0
 12 10  1  0
M  END
$$$$
