
     RDKit          3D

 10 10  0  0  0  0  0  0  0  0999 V2000
    6.7850  -19.1380  -49.0000 C   0  0  0  0  0  0  0  0  0  0  0  0
    6.7610  -19.2210  -46.7960 C   0  0  0  0  0  0  0  0  0  0  0  0
    9.8810  -18.8350  -48.3280 O   0  0  0  0  0  0  0  0  0  0  0  0
    5.3370  -19.1760  -49.0210 C   0  0  0  0  0  0  0  0  0  0  0  0
    8.7710  -18.9380  -47.5510 N   0  0  0  0  0  0  0  0  0  0  0  0
   10.3350  -18.8180  -46.1410 O   0  0  0  0  0  0  0  0  0  0  0  0
    9.5440  -18.8910  -46.9900 C   0  0  0  0  0  0  0  0  0  0  0  0
    4.7350  -19.0740  -47.8700 C   0  0  0  0  0  0  0  0  0  0  0  0
    7.4770  -19.1450  -47.9490 C   0  0  0  0  0  0  0  0  0  0  0  0
    5.4180  -18.9660  -46.6820 C   0  0  0  0  0  0  0  0  0  0  0  0
  1  9  1  0
  2 10  1  0
  3  5  1  0
  4  1  2  0
  4  8  1  0
  5  7  1  0
  7  6  1  0
  8 10  2  0
  9  5  1  0
  9  2  2  0
M  END
$$$$

     RDKit          3D

 12 13  0  0  0  0  0  0  0  0999 V2000
    7.6070  -19.3560  -45.6840 C   0  0  0  0  0  0  0  0  0  0  0  0
    9.0090  -18.7640  -47.6420 C   0  0  0  0  0  0  0  0  0  0  0  0
    5.3520  -19.3250  -48.6030 C   0  0  0  0  0  0  0  0  0  0  0  0
    5.1430  -19.9290  -46.1640 C   0  0  0  0  0  0  0  0  0  0  0  0
    7.8330  -18.7500  -48.4150 C   0  0  0  0  0  0  0  0  0  0  0  0
   10.2990  -18.4890  -48.0120 N   0  0  0  0  0  0  0  0  0  0  0  0
    8.7870  -19.0400  -46.3070 C   0  0  0  0  0  0  0  0  0  0  0  0
    6.5090  -19.4290  -46.5180 C   0  0  0  0  0  0  0  0  0  0  0  0
    4.4750  -19.2120  -45.0720 C   0  0  0  0  0  0  0  0  0  0  0  0
    3.4470  -19.1010  -47.7060 N   0  0  0  0  0  0  0  0  0  0  0  0
    4.4000  -19.6530  -47.5130 C   0  0  0  0  0  0  0  0  0  0  0  0
    6.6280  -19.1450  -47.8630 C   0  0  0  0  0  0  0  0  0  0  0  0
  2  7  2  0
  3 12  1  0
  3 11  1  0
  4  9  1  0
  5 12  2  0
  5  2  1  0
  6  2  1  0
  7  1  1  0
  8  4  1  0
  8  1  2  0
 10 11  2  0
 11  4  1  0
 12  8  1  0
M  END
$$$$

     RDKit          3D

 12 13  0  0  0  0  0  0  0  0999 V2000
    2.7590  -19.1610  -50.1460 C   0  0  0  0  0  0  0  0  0  0  0  0
    2.7360  -19.2670  -48.7780 C   0  0  0  0  0  0  0  0  0  0  0  0
    8.8570  -19.1920  -46.4230 C   0  0  0  0  0  0  0  0  0  0  0  0
    5.7270  -19.1590  -47.4580 N   0  0  0  0  0  0  0  0  0  0  0  0
    3.8140  -19.5840  -46.6350 C   0  0  0  0  0  0  0  0  0  0  0  0
    7.0630  -19.1150  -47.6430 C   0  0  0  0  0  0  0  0  0  0  0  0
    6.3230  -19.5490  -46.0030 C   0  0  0  0  0  0  0  0  0  0  0  0
    3.4780  -19.4610  -47.7670 C   0  0  0  0  0  0  0  0  0  0  0  0
    2.6890  -20.1830  -50.9610 C   0  0  0  0  0  0  0  0  0  0  0  0
    7.8160  -19.4140  -45.7740 C   0  0  0  0  0  0  0  0  0  0  0  0
    8.4750  -18.9960  -47.7340 C   0  0  0  0  0  0  0  0  0  0  0  0
    5.2270  -19.5650  -46.2560 C   0  0  0  0  0  0  0  0  0  0  0  0
  1  2  1  0
  2  8  2  0
  3 10  2  0
  4 12  2  0
  5 12  1  0
  6  4  2  0
  6  7  1  0
  7 10  1  0
  8  5  2  0
  9  1  2  0
 11  6  1  0
 11  3  1  0
 12  7  1  0
M  END
$$$$

     RDKit          3D

 12 11  0  0  0  0  0  0  0  0999 V2000
    5.8130  -19.4090  -48.9030 C   0  0  0  0  0  0  0  0  0  0  0  0
    7.8430  -19.0670  -47.5470 N   0  0  0  0  0  0  0  0  0  0  0  0
    5.6400  -20.0320  -45.1270 C   0  0  0  0  0  0  0  0  0  0  0  0
    5.1230  -20.9940  -45.7240 O   0  0  0  0  0  0  0  0  0  0  0  0
    7.2310  -19.8670  -45.4140 C   0  0  0  0  0  0  0  0  0  0  0  0
    5.7130  -19.7410  -51.0660 O   0  0  0  0  0  0  0  0  0  0  0  0
    4.8810  -19.3940  -44.5600 O   0  0  0  0  0  0  0  0  0  0  0  0
    8.1160  -19.2240  -46.2870 C   0  0  0  0  0  0  0  0  0  0  0  0
    7.5700  -19.7520  -43.9160 C   0  0  0  0  0  0  0  0  0  0  0  0
    6.6180  -18.5400  -48.0190 C   0  0  0  0  0  0  0  0  0  0  0  0
    9.2460  -19.0670  -46.0300 O   0  0  0  0  0  0  0  0  0  0  0  0
    6.6910  -19.3430  -50.1190 C   0  0  0  0  0  0  0  0  0  0  0  0
  1 10  1  0
  2  8  1  0
  3  7  1  0
  4  3  2  0
  5  3  1  0
  5  9  1  0
  6 12  1  0
  8 11  2  0
  8  5  1  0
 10  2  1  0
 12  1  1  0
M  END
$$$$

     RDKit          3D

 11 12  0  0  0  0  0  0  0  0999 V2000
    6.4940  -19.6500  -46.5320 C   0  0  0  0  0  0  0  0  0  0  0  0
    8.8410  -19.2810  -46.2670 C   0  0  0  0  0  0  0  0  0  0  0  0
    4.1650  -20.1870  -46.8270 C   0  0  0  0  0  0  0  0  0  0  0  0
    3.8320  -19.4230  -45.6750 C   0  0  0  0  0  0  0  0  0  0  0  0
    7.7400  -19.6250  -47.0330 C   0  0  0  0  0  0  0  0  0  0  0  0
    7.2970  -18.7650  -44.4310 C   0  0  0  0  0  0  0  0  0  0  0  0
    5.4390  -20.2680  -47.2000 C   0  0  0  0  0  0  0  0  0  0  0  0
    7.1980  -18.5320  -43.1850 O   0  0  0  0  0  0  0  0  0  0  0  0
    4.8950  -18.9380  -44.8730 C   0  0  0  0  0  0  0  0  0  0  0  0
    8.6170  -18.8600  -44.9200 C   0  0  0  0  0  0  0  0  0  0  0  0
    6.1990  -19.1320  -45.3030 C   0  0  0  0  0  0  0  0  0  0  0  0
  1 11  1  0
  2 10  1  0
  3  4  2  0
  4  9  1  0
  5  1  1  0
  5  2  2  0
  6  8  2  0
  7  3  1  0
  7  1  2  0
 10  6  1  0
 11  9  2  0
 11  6  1  0
M  END
$$$$

     RDKit          3D

 11 12  0  0  0  0  0  0  0  0999 V2000
    3.9610  -18.7180  -46.8610 O   0  0  0  0  0  0  0  0  0  0  0  0
    1.8690  -19.9920  -50.7560 C   0  0  0  0  0  0  0  0  0  0  0  0
    5.0300  -19.4650  -52.5000 C   0  0  0  0  0  0  0  0  0  0  0  0
    3.6920  -19.6380  -52.6860 N   0  0  0  0  0  0  0  0  0  0  0  0
    3.0810  -19.6570  -51.3590 C   0  0  0  0  0  0  0  0  0  0  0  0
    5.5920  -19.3120  -50.8400 S   0  0  0  0  0  0  0  0  0  0  0  0
    3.9210  -19.1800  -50.2310 C   0  0  0  0  0  0  0  0  0  0  0  0
    1.7680  -19.7300  -49.2030 S   0  0  0  0  0  0  0  0  0  0  0  0
    5.6910  -19.3050  -48.0570 O   0  0  0  0  0  0  0  0  0  0  0  0
    4.4820  -19.1220  -47.8810 C   0  0  0  0  0  0  0  0  0  0  0  0
    3.4620  -19.3810  -49.0040 C   0  0  0  0  0  0  0  0  0  0  0  0
  2  8  1  0
  3  6  1  0
  4  3  1  0
  4  5  2  0
  5  2  1  0
  6  7  1  0
  7  5  1  0
  7 11  1  0
  8 11  1  0
  9 10  2  0
 10  1  1  0
 11 10  1  0
M  END
$$$$

     RDKit          3D

 11 11  0  0  0  0  0  0  0  0999 V2000
    8.0470  -19.7130  -47.8700 O   0  0  0  0  0  0  0  0  0  0  0  0
    4.0900  -19.4130  -47.4930 C   0  0  0  0  0  0  0  0  0  0  0  0
    4.2740  -18.9490  -45.1300 C   0  0  0  0  0  0  0  0  0  0  0  0
    6.7670  -19.5710  -47.7020 C   0  0  0  0  0  0  0  0  0  0  0  0
    5.9470  -19.8440  -48.8510 C   0  0  0  0  0  0  0  0  0  0  0  0
    4.6080  -19.7260  -48.7690 C   0  0  0  0  0  0  0  0  0  0  0  0
    3.1440  -18.8870  -44.8050 O   0  0  0  0  0  0  0  0  0  0  0  0
    6.2690  -19.3370  -46.5290 N   0  0  0  0  0  0  0  0  0  0  0  0
    2.7540  -19.2160  -47.4130 O   0  0  0  0  0  0  0  0  0  0  0  0
    3.6740  -19.8730  -49.6710 O   0  0  0  0  0  0  0  0  0  0  0  0
    4.9640  -19.2320  -46.4520 C   0  0  0  0  0  0  0  0  0  0  0  0
  1  4  2  0
  2  9  1  0
  2 11  1  0
  3  7  2  0
  4  8  2  0
  5  6  2  0
  5  4  1  0
  6  2  1  0
  8 11  2  0
 10  6  1  0
 11  3  1  0
M  END
$$$$

     RDKit          3D

 10 10  0  0  0  0  0  0  0  0999 V2000
    4.7700  -20.0580  -48.4720 N   0  0  0  0  0  0  0  0  0  0  0  0
    8.1400  -18.9100  -49.6730 C   0  0  0  0  0  0  0  0  0  0  0  0
    8.5830  -18.8420  -47.0950 C   0  0  0  0  0  0  0  0  0  0  0  0
    7.3140  -18.9250  -46.6250 N   0  0  0  0  0  0  0  0  0  0  0  0
   10.3720  -18.7510  -48.4130 N   0  0  0  0  0  0  0  0  0  0  0  0
    5.5590  -19.4710  -49.0730 C   0  0  0  0  0  0  0  0  0  0  0  0
    6.6420  -18.5450  -49.4020 C   0  0  0  0  0  0  0  0  0  0  0  0
    9.0300  -18.7990  -48.4810 C   0  0  0  0  0  0  0  0  0  0  0  0
    9.6410  -18.7490  -46.3390 N   0  0  0  0  0  0  0  0  0  0  0  0
   10.7170  -18.6710  -47.2020 N   0  0  0  0  0  0  0  0  0  0  0  0
  2  7  1  0
  2  8  1  0
  3  4  1  0
  3  9  2  0
  5 10  1  0
  6  1  3  0
  7  6  1  0
  8  5  2  0
  8  3  1  0
 10  9  1  0
M  END
$$$$

     RDKit          3D

 10 10  0  0  0  0  0  0  0  0999 V2000
    5.9960  -18.7220  -46.7400 C   0  0  0  0  0  0  0  0  0  0  0  0
    2.7600  -19.2970  -48.1980 C   0  0  0  0  0  0  0  0  0  0  0  0
    8.3130  -19.5760  -45.8470 C   0  0  0  0  0  0  0  0  0  0  0  0
    3.5040  -19.5040  -49.3070 C   0  0  0  0  0  0  0  0  0  0  0  0
    4.8450  -19.3560  -48.9040 C   0  0  0  0  0  0  0  0  0  0  0  0
    8.9760  -18.6270  -46.6560 N   0  0  0  0  0  0  0  0  0  0  0  0
    4.8010  -19.0790  -47.5680 C   0  0  0  0  0  0  0  0  0  0  0  0
    6.8500  -19.8420  -46.2740 C   0  0  0  0  0  0  0  0  0  0  0  0
    3.5640  -19.0350  -47.1530 C   0  0  0  0  0  0  0  0  0  0  0  0
    8.3210  -19.1610  -44.5210 O   0  0  0  0  0  0  0  0  0  0  0  0
  1  8  1  0
  2  9  1  0
  3  6  1  0
  3 10  1  0
  4  5  1  0
  4  2  2  0
  5  7  2  0
  7  9  1  0
  7  1  1  0
  8  3  1  0
M  END
$$$$

     RDKit          3D

 10 11  0  0  0  0  0  0  0  0999 V2000
    6.3730  -19.2150  -46.3850 C   0  0  0  0  0  0  0  0  0  0  0  0
    3.7890  -18.6190  -45.7200 C   0  0  0  0  0  0  0  0  0  0  0  0
    2.7350  -19.3760  -47.7150 O   0  0  0  0  0  0  0  0  0  0  0  0
    4.4680  -19.6830  -49.0890 C   0  0  0  0  0  0  0  0  0  0  0  0
    2.4060  -19.0100  -46.3380 C   0  0  0  0  0  0  0  0  0  0  0  0
    6.9610  -19.5500  -48.8510 C   0  0  0  0  0  0  0  0  0  0  0  0
    5.8380  -19.6080  -49.5310 C   0  0  0  0  0  0  0  0  0  0  0  0
    4.8730  -19.1560  -46.7220 C   0  0  0  0  0  0  0  0  0  0  0  0
    7.3120  -19.3460  -47.4760 C   0  0  0  0  0  0  0  0  0  0  0  0
    4.1410  -19.4090  -47.8940 C   0  0  0  0  0  0  0  0  0  0  0  0
  3  5  1  0
  4 10  2  0
  5  2  1  0
  6  9  1  0
  7  4  1  0
  7  6  2  0
  8  1  1  0
  8  2  1  0
  9  1  2  0
 10  3  1  0
 10  8  1  0
M  END
$$$$

     RDKit          3D

  5  4  0  0  0  0  0  0  0  0999 V2000
    2.9160  -18.2140  -46.0810 C   0  0  0  0  0  0  0  0  0  0  0  0
    6.3060  -19.6410  -47.6680 N   0  0  0  0  0  0  0  0  0  0  0  0
    4.0670  -18.5530  -46.6510 O   0  0  0  0  0  0  0  0  0  0  0  0
    5.3210  -20.2760  -47.3690 C   0  0  0  0  0  0  0  0  0  0  0  0
    3.9120  -19.4460  -47.4780 C   0  0  0  0  0  0  0  0  0  0  0  0
  2  4  1  0
  3  1  1  0
  5  4  1  0
  5  3  1  0
M  END
$$$$

     RDKit          3D

 35 35  0  0  0  0  0  0  0  0999 V2000
   -0.1660  -18.5020  -49.3030 C   0  0  0  0  0  0  0  0  0  0  0  0
    3.6410  -18.6520  -56.7750 C   0  0  0  0  0  0  0  0  0  0  0  0
   -1.2840  -20.0900  -52.9520 C   0  0  0  0  0  0  0  0  0  0  0  0
    3.8480  -20.7530  -54.8250 N   0  0  0  0  0  0  0  0  0  0  0  0
    5.0670  -20.0700  -50.8400 C   0  0  0  0  0  0  0  0  0  0  0  0
    6.2940  -19.9280  -48.4850 C   0  0  0  0  0  0  0  0  0  0  0  0
    5.3390  -25.0540  -54.0620 C   0  0  0  0  0  0  0  0  0  0  0  0
    5.2790  -20.1090  -49.7380 C   0  0  0  0  0  0  0  0  0  0  0  0
    4.7070  -27.3070  -54.4950 O   0  0  0  0  0  0  0  0  0  0  0  0
   -0.7420  -20.0970  -51.6770 C   0  0  0  0  0  0  0  0  0  0  0  0
   -2.2780  -19.5290  -51.0970 C   0  0  0  0  0  0  0  0  0  0  0  0
    2.8050  -21.2110  -55.7200 C   0  0  0  0  0  0  0  0  0  0  0  0
   -0.1610  -19.9300  -52.7010 C   0  0  0  0  0  0  0  0  0  0  0  0
    4.6060  -19.4770  -54.5660 C   0  0  0  0  0  0  0  0  0  0  0  0
   -4.3550  -19.4400  -52.6740 C   0  0  0  0  0  0  0  0  0  0  0  0
    4.2780  -19.5680  -58.1940 C   0  0  0  0  0  0  0  0  0  0  0  0
    3.6500  -20.9440  -52.3980 C   0  0  0  0  0  0  0  0  0  0  0  0
    1.8940  -20.0370  -51.6440 N   0  0  0  0  0  0  0  0  0  0  0  0
    1.7980  -22.2840  -51.5300 O   0  0  0  0  0  0  0  0  0  0  0  0
   -3.0110  -19.6930  -51.7820 N   0  0  0  0  0  0  0  0  0  0  0  0
   -6.3790  -20.1040  -52.7530 C   0  0  0  0  0  0  0  0  0  0  0  0
    4.8420  -18.7830  -55.8580 C   0  0  0  0  0  0  0  0  0  0  0  0
    5.7360  -26.4170  -54.6220 C   0  0  0  0  0  0  0  0  0  0  0  0
    3.6460  -22.9890  -53.8190 C   0  0  0  0  0  0  0  0  0  0  0  0
    1.2070  -20.1770  -50.4250 C   0  0  0  0  0  0  0  0  0  0  0  0
    4.7800  -20.2090  -52.0570 O   0  0  0  0  0  0  0  0  0  0  0  0
   -0.2160  -19.7600  -50.2260 C   0  0  0  0  0  0  0  0  0  0  0  0
    3.5040  -23.8670  -54.6900 C   0  0  0  0  0  0  0  0  0  0  0  0
    6.2000  -26.8070  -55.4880 O   0  0  0  0  0  0  0  0  0  0  0  0
    7.3700  -19.3990  -48.1190 C   0  0  0  0  0  0  0  0  0  0  0  0
   -4.1630  -20.5360  -53.4490 O   0  0  0  0  0  0  0  0  0  0  0  0
    3.8170  -21.6570  -53.6670 C   0  0  0  0  0  0  0  0  0  0  0  0
    4.2380  -24.8490  -54.4800 C   0  0  0  0  0  0  0  0  0  0  0  0
    2.5490  -21.2530  -51.7010 C   0  0  0  0  0  0  0  0  0  0  0  0
   -5.4080  -18.8920  -51.8560 O   0  0  0  0  0  0  0  0  0  0  0  0
  2 22  1  0
  3 13  1  0
  3 10  1  0
  4 14  1  0
  4 32  1  0
  5  8  1  0
  6 30  2  0
  8  6  1  0
 10 11  1  0
 10 27  1  0
 12  4  1  0
 13 10  1  0
 15 31  1  0
 15 35  1  0
 15 20  1  0
 16  2  1  0
 17 32  1  0
 17 26  1  0
 17 34  1  0
 18 25  1  0
 20 11  1  0
 21 35  1  0
 22 14  1  0
 23  9  1  0
 23  7  1  0
 24 32  2  3
 25 27  1  0
 26  5  1  0
 27  1  1  0
 28 33  1  0
 28 24  1  0
 29 23  2  0
 33  7  1  0
 34 18  1  0
 34 19  2  0
M  END
$$$$

     RDKit          3D

 11 11  0  0  0  0  0  0  0  0999 V2000
    9.8420  -18.9300  -47.2200 N   0  0  0  0  0  0  0  0  0  0  0  0
    4.6940  -19.0040  -44.6390 O   0  0  0  0  0  0  0  0  0  0  0  0
    5.1530  -19.4440  -46.5410 C   0  0  0  0  0  0  0  0  0  0  0  0
    5.4340  -19.4640  -48.0570 C   0  0  0  0  0  0  0  0  0  0  0  0
    6.7990  -19.5730  -46.0020 C   0  0  0  0  0  0  0  0  0  0  0  0
    3.0300  -19.9940  -45.9600 C   0  0  0  0  0  0  0  0  0  0  0  0
    7.0230  -18.9290  -48.6010 C   0  0  0  0  0  0  0  0  0  0  0  0
    5.6340  -19.1250  -48.5930 C   0  0  0  0  0  0  0  0  0  0  0  0
    7.4290  -19.0840  -47.3570 C   0  0  0  0  0  0  0  0  0  0  0  0
    8.8690  -19.0460  -47.2770 C   0  0  0  0  0  0  0  0  0  0  0  0
    4.4920  -19.9950  -45.5320 C   0  0  0  0  0  0  0  0  0  0  0  0
  3  5  1  0
  3 11  1  0
  4  3  1  0
  7  8  1  0
  7  9  1  0
  8  4  1  0
  9 10  1  0
  9  5  1  0
 10  1  3  0
 11  6  1  0
 11  2  1  0
M  END
$$$$

     RDKit          3D

  4  3  0  0  0  0  0  0  0  0999 V2000
    8.6870  -23.0940  -49.7880 Br  0  0  0  0  0  0  0  0  0  0  0  0
    8.7510  -23.4890  -49.8690 O   0  0  0  0  0  0  0  0  0  0  0  0
    9.0270  -23.6460  -49.4840 Br  0  0  0  0  0  0  0  0  0  0  0  0
    8.7160  -23.8550  -49.6780 O   0  0  0  0  0  0  0  0  0  0  0  0
  2  1  1  0
  2  4  1  0
  4  3  1  0
M  END
$$$$

     RDKit          3D

 10 11  0  0  0  0  0  0  0  0999 V2000
    6.9290  -19.5200  -46.6970 C   0  0  0  0  0  0  0  0  0  0  0  0
    6.1970  -19.6740  -50.2060 C   0  0  0  0  0  0  0  0  0  0  0  0
    5.0360  -19.5850  -51.1380 C   0  0  0  0  0  0  0  0  0  0  0  0
    4.4970  -19.4030  -47.0150 C   0  0  0  0  0  0  0  0  0  0  0  0
    5.9200  -19.6610  -48.8530 C   0  0  0  0  0  0  0  0  0  0  0  0
    5.6190  -19.4150  -46.1720 C   0  0  0  0  0  0  0  0  0  0  0  0
    4.5720  -19.4810  -48.3320 C   0  0  0  0  0  0  0  0  0  0  0  0
    7.0380  -19.6530  -48.0480 C   0  0  0  0  0  0  0  0  0  0  0  0
    3.7150  -19.5570  -50.5430 C   0  0  0  0  0  0  0  0  0  0  0  0
    3.5530  -19.4380  -49.1930 N   0  0  0  0  0  0  0  0  0  0  0  0
  1  6  1  0
  2  5  2  0
  3  9  2  0
  3  2  1  0
  4  6  2  0
  5  7  1  0
  5  8  1  0
  7  4  1  0
  8  1  2  0
  9 10  1  0
 10  7  2  0
M  END
$$$$

     RDKit          3D

 11 11  0  0  0  0  0  0  0  0999 V2000
    6.4850  -19.0080  -48.6290 C   0  0  0  0  0  0  0  0  0  0  0  0
    7.5070  -19.0130  -47.6780 C   0  0  0  0  0  0  0  0  0  0  0  0
    7.1840  -19.2100  -46.3480 C   0  0  0  0  0  0  0  0  0  0  0  0
    7.9850  -19.2440  -43.9400 O   0  0  0  0  0  0  0  0  0  0  0  0
    5.2320  -19.0570  -48.1530 C   0  0  0  0  0  0  0  0  0  0  0  0
    9.1920  -18.9480  -45.6500 N   0  0  0  0  0  0  0  0  0  0  0  0
    8.1650  -19.1260  -45.1300 C   0  0  0  0  0  0  0  0  0  0  0  0
    5.5830  -19.6200  -44.6910 O   0  0  0  0  0  0  0  0  0  0  0  0
   10.0510  -18.8150  -46.7160 C   0  0  0  0  0  0  0  0  0  0  0  0
    5.9700  -19.3590  -45.9660 C   0  0  0  0  0  0  0  0  0  0  0  0
    5.0260  -19.2120  -46.8730 C   0  0  0  0  0  0  0  0  0  0  0  0
  1  5  2  0
  1  2  1  0
  2  3  2  0
  3 10  1  0
  3  7  1  0
  5 11  1  0
  6  7  1  0
  7  4  2  0
  9  6  3  0
 10  8  1  0
 11 10  2  0
M  END
$$$$

     RDKit          3D

 12 13  0  0  0  0  0  0  0  0999 V2000
    6.9980  -18.9370  -49.7400 C   0  0  0  0  0  0  0  0  0  0  0  0
    8.8530  -18.9280  -48.2600 N   0  0  0  0  0  0  0  0  0  0  0  0
    6.1570  -19.0230  -48.6480 C   0  0  0  0  0  0  0  0  0  0  0  0
    5.3610  -19.4020  -45.1630 C   0  0  0  0  0  0  0  0  0  0  0  0
    8.4280  -19.4920  -44.7180 N   0  0  0  0  0  0  0  0  0  0  0  0
    4.7530  -19.0390  -48.4660 N   0  0  0  0  0  0  0  0  0  0  0  0
    6.6020  -19.1210  -47.3250 C   0  0  0  0  0  0  0  0  0  0  0  0
    4.3970  -19.0920  -47.2350 N   0  0  0  0  0  0  0  0  0  0  0  0
    5.5490  -19.2250  -46.5350 C   0  0  0  0  0  0  0  0  0  0  0  0
    8.6480  -19.2460  -45.8570 C   0  0  0  0  0  0  0  0  0  0  0  0
    8.2920  -18.7930  -49.5010 C   0  0  0  0  0  0  0  0  0  0  0  0
    8.1160  -19.1210  -47.2390 C   0  0  0  0  0  0  0  0  0  0  0  0
  1 11  2  0
  1  3  1  0
  2 12  2  0
  3  6  2  0
  6  8  1  0
  7  3  1  0
  7 12  1  0
  7  9  1  0
  8  9  2  0
  9  4  1  0
 10  5  2  0
 11  2  1  0
 12 10  1  0
M  END
$$$$

     RDKit          3D

 34 39  0  0  0  0  0  0  0  0999 V2000
   -0.0740  -16.8880  -47.6850 C   0  0  0  0  0  0  0  0  0  0  0  0
    3.9720  -20.6640  -57.4820 S   0  0  0  0  0  0  0  0  0  0  0  0
    1.9170  -19.0260  -50.0550 C   0  0  0  0  0  0  0  0  0  0  0  0
   -0.2560  -20.8390  -49.2250 C   0  0  0  0  0  0  0  0  0  0  0  0
    5.0280  -23.0890  -58.1160 C   0  0  0  0  0  0  0  0  0  0  0  0
    3.0860  -19.3630  -49.3680 C   0  0  0  0  0  0  0  0  0  0  0  0
    3.4800  -19.7860  -52.9360 C   0  0  0  0  0  0  0  0  0  0  0  0
    5.8680  -19.5810  -50.1320 C   0  0  0  0  0  0  0  0  0  0  0  0
    4.4470  -22.2410  -55.6370 C   0  0  0  0  0  0  0  0  0  0  0  0
    4.2920  -19.6380  -50.2760 C   0  0  0  0  0  0  0  0  0  0  0  0
    2.4290  -19.6310  -55.0310 F   0  0  0  0  0  0  0  0  0  0  0  0
    6.0740  -23.9910  -55.8960 C   0  0  0  0  0  0  0  0  0  0  0  0
    2.5460  -20.1670  -51.9030 C   0  0  0  0  0  0  0  0  0  0  0  0
    3.9330  -20.2470  -51.5950 C   0  0  0  0  0  0  0  0  0  0  0  0
    6.6900  -25.1350  -58.0580 O   0  0  0  0  0  0  0  0  0  0  0  0
   -1.2650  -17.2540  -46.7680 C   0  0  0  0  0  0  0  0  0  0  0  0
    5.0020  -26.5150  -55.5660 C   0  0  0  0  0  0  0  0  0  0  0  0
    4.8350  -21.9690  -57.0350 C   0  0  0  0  0  0  0  0  0  0  0  0
    0.6500  -18.4350  -49.2600 C   0  0  0  0  0  0  0  0  0  0  0  0
    6.1680  -25.6990  -55.7420 N   0  0  0  0  0  0  0  0  0  0  0  0
    5.6180  -24.4770  -57.3580 C   0  0  0  0  0  0  0  0  0  0  0  0
    4.2870  -20.9480  -54.9850 C   0  0  0  0  0  0  0  0  0  0  0  0
   -0.5600  -19.4780  -48.2100 C   0  0  0  0  0  0  0  0  0  0  0  0
    3.3810  -20.9760  -53.8150 O   0  0  0  0  0  0  0  0  0  0  0  0
    1.0480  -17.5600  -48.3300 C   0  0  0  0  0  0  0  0  0  0  0  0
   -2.2570  -16.7680  -46.2960 C   0  0  0  0  0  0  0  0  0  0  0  0
    6.3250  -20.1920  -49.0650 O   0  0  0  0  0  0  0  0  0  0  0  0
   -1.7190  -18.9120  -49.5790 C   0  0  0  0  0  0  0  0  0  0  0  0
    5.0690  -23.4610  -54.8490 C   0  0  0  0  0  0  0  0  0  0  0  0
    1.6800  -19.2080  -51.2210 C   0  0  0  0  0  0  0  0  0  0  0  0
   -2.9620  -15.6890  -47.6470 C   0  0  0  0  0  0  0  0  0  0  0  0
   -1.6620  -18.3460  -48.2210 C   0  0  0  0  0  0  0  0  0  0  0  0
    6.3400  -19.3340  -51.1930 O   0  0  0  0  0  0  0  0  0  0  0  0
    3.4870  -20.1830  -55.7700 C   0  0  0  0  0  0  0  0  0  0  0  0
  1 16  1  0
  2 18  1  0
  2 34  1  0
  3 30  1  0
  3  6  1  0
  3 19  1  0
  4 23  1  0
  5 21  1  0
  5 18  1  0
  7 24  1  0
  7 13  1  0
  7 14  1  0
  8 27  1  0
  9 22  1  0
  9 29  1  0
 10  8  1  0
 10  6  1  0
 12 20  1  0
 12 29  1  0
 13 14  1  0
 13 30  1  0
 14 10  1  0
 15 21  1  0
 16 26  1  0
 18  9  1  0
 19 25  1  0
 19 23  1  0
 20 17  1  0
 21 12  1  0
 22 24  1  0
 25  1  1  0
 28 32  1  0
 28 23  1  0
 31 26  1  0
 32 23  1  0
 32 16  1  0
 33  8  2  0
 34 11  1  0
 34 22  1  0
M  END
$$$$

     RDKit          3D

 36 39  0  0  0  0  0  0  0  0999 V2000
    8.5280  -19.4530  -46.5240 C   0  0  0  0  0  0  0  0  0  0  0  0
    7.1840  -19.6000  -46.4490 N   0  0  0  0  0  0  0  0  0  0  0  0
   11.3770  -18.6700  -49.0270 C   0  0  0  0  0  0  0  0  0  0  0  0
    3.6090  -19.7100  -48.5280 C   0  0  0  0  0  0  0  0  0  0  0  0
    2.3200  -19.7890  -50.3810 N   0  0  0  0  0  0  0  0  0  0  0  0
    6.0100  -19.5940  -48.7740 C   0  0  0  0  0  0  0  0  0  0  0  0
   12.2690  -19.8840  -45.5620 C   0  0  0  0  0  0  0  0  0  0  0  0
    4.6350  -20.8520  -52.7970 C   0  0  0  0  0  0  0  0  0  0  0  0
    1.1660  -19.5650  -48.2810 N   0  0  0  0  0  0  0  0  0  0  0  0
    4.5870  -20.0730  -51.1350 S   0  0  0  0  0  0  0  0  0  0  0  0
   12.3700  -18.7680  -46.6940 C   0  0  0  0  0  0  0  0  0  0  0  0
    4.5320  -22.1810  -53.1190 C   0  0  0  0  0  0  0  0  0  0  0  0
    4.8440  -22.5720  -54.4120 N   0  0  0  0  0  0  0  0  0  0  0  0
    5.1840  -21.6530  -55.3860 C   0  0  0  0  0  0  0  0  0  0  0  0
    4.9660  -19.7770  -53.7900 C   0  0  0  0  0  0  0  0  0  0  0  0
   13.6400  -19.7010  -44.6470 C   0  0  0  0  0  0  0  0  0  0  0  0
   -1.1130  -19.2920  -47.5690 C   0  0  0  0  0  0  0  0  0  0  0  0
    2.3070  -19.7010  -49.0120 C   0  0  0  0  0  0  0  0  0  0  0  0
   10.6610  -20.1550  -45.5680 C   0  0  0  0  0  0  0  0  0  0  0  0
   11.5150  -21.0860  -44.9840 C   0  0  0  0  0  0  0  0  0  0  0  0
    5.4640  -22.0260  -56.5200 O   0  0  0  0  0  0  0  0  0  0  0  0
    3.7580  -19.7650  -47.1960 N   0  0  0  0  0  0  0  0  0  0  0  0
    9.1330  -19.7120  -45.1130 C   0  0  0  0  0  0  0  0  0  0  0  0
   12.2600  -19.2740  -47.9560 O   0  0  0  0  0  0  0  0  0  0  0  0
   12.1550  -22.1470  -42.5460 C   0  0  0  0  0  0  0  0  0  0  0  0
   -2.2650  -19.8530  -46.6660 C   0  0  0  0  0  0  0  0  0  0  0  0
    5.1760  -20.1980  -55.1190 C   0  0  0  0  0  0  0  0  0  0  0  0
    5.0090  -19.7940  -46.5960 N   0  0  0  0  0  0  0  0  0  0  0  0
   11.0120  -21.3630  -43.2920 C   0  0  0  0  0  0  0  0  0  0  0  0
    9.2430  -19.2440  -47.5460 O   0  0  0  0  0  0  0  0  0  0  0  0
   13.9520  -20.9280  -43.7910 C   0  0  0  0  0  0  0  0  0  0  0  0
   12.2800  -23.7220  -43.2660 C   0  0  0  0  0  0  0  0  0  0  0  0
    6.1130  -19.6540  -47.3940 C   0  0  0  0  0  0  0  0  0  0  0  0
    0.2720  -19.5850  -46.9910 C   0  0  0  0  0  0  0  0  0  0  0  0
    4.7680  -19.7410  -49.3660 C   0  0  0  0  0  0  0  0  0  0  0  0
   13.4340  -21.8060  -42.9980 C   0  0  0  0  0  0  0  0  0  0  0  0
  1  2  1  0
  1 23  1  0
  3 24  1  0
  4 22  2  0
  5 18  2  0
  6 33  1  0
  7 11  1  0
  7 20  1  0
  7 16  1  0
  8 10  1  0
  9 34  1  0
 10 35  1  0
 12  8  2  0
 13 12  1  0
 14 27  1  0
 14 13  2  0
 15  8  1  0
 16 31  1  0
 17 34  1  0
 17 26  1  0
 18  4  1  0
 18  9  1  0
 19  7  1  0
 19 23  1  0
 19 20  1  0
 20 29  1  0
 21 14  2  0
 22 28  1  0
 24 11  1  0
 25 32  1  0
 27 15  2  0
 29 25  1  0
 30  1  2  0
 31 36  2  0
 33 28  2  0
 33  2  1  0
 35  6  2  0
 35  4  1  0
 36 25  1  0
M  END
$$$$

     RDKit          3D

 11 12  0  0  0  0  0  0  0  0999 V2000
    4.6800  -18.7040  -51.9800 O   0  0  0  0  0  0  0  0  0  0  0  0
    5.9540  -19.9090  -47.4290 C   0  0  0  0  0  0  0  0  0  0  0  0
    5.8220  -20.2200  -46.0950 N   0  0  0  0  0  0  0  0  0  0  0  0
    6.9920  -19.6950  -49.5640 C   0  0  0  0  0  0  0  0  0  0  0  0
    5.6460  -19.1450  -51.5340 C   0  0  0  0  0  0  0  0  0  0  0  0
    7.1260  -20.0010  -48.2730 C   0  0  0  0  0  0  0  0  0  0  0  0
    4.7100  -19.3450  -47.9300 C   0  0  0  0  0  0  0  0  0  0  0  0
    4.5820  -19.0790  -49.3700 C   0  0  0  0  0  0  0  0  0  0  0  0
    5.7190  -19.3320  -50.0860 C   0  0  0  0  0  0  0  0  0  0  0  0
    3.6480  -18.9560  -46.7200 S   0  0  0  0  0  0  0  0  0  0  0  0
    4.7930  -19.7000  -45.5920 C   0  0  0  0  0  0  0  0  0  0  0  0
  1  5  2  0
  2  3  2  0
  3 11  1  0
  4  6  2  0
  5  9  1  0
  6  2  1  0
  7  8  1  0
  7  2  1  0
  7 10  1  0
  9  4  1  0
  9  8  2  0
 10 11  1  0
M  END
$$$$
