
     RDKit          3D

 17 19  0  0  0  0  0  0  0  0999 V2000
   11.5170  -34.9240  -33.9570 C   0  0  0  0  0  0  0  0  0  0  0  0
    7.1330  -32.8390  -32.9180 N   0  0  0  0  0  0  0  0  0  0  0  0
   11.9440  -33.5430  -31.8200 C   0  0  0  0  0  0  0  0  0  0  0  0
    4.8570  -32.0890  -32.3260 C   0  0  0  0  0  0  0  0  0  0  0  0
    5.8360  -32.8690  -32.9270 C   0  0  0  0  0  0  0  0  0  0  0  0
    7.8870  -33.8010  -33.6190 C   0  0  0  0  0  0  0  0  0  0  0  0
    7.2080  -34.8450  -34.6070 C   0  0  0  0  0  0  0  0  0  0  0  0
    5.0910  -33.8250  -33.7580 C   0  0  0  0  0  0  0  0  0  0  0  0
   12.0730  -33.5330  -33.2990 C   0  0  0  0  0  0  0  0  0  0  0  0
    7.8800  -36.2400  -34.3030 C   0  0  0  0  0  0  0  0  0  0  0  0
    3.5960  -32.4530  -32.7100 N   0  0  0  0  0  0  0  0  0  0  0  0
    3.7480  -33.4620  -33.6840 C   0  0  0  0  0  0  0  0  0  0  0  0
   10.0240  -34.9480  -33.9020 C   0  0  0  0  0  0  0  0  0  0  0  0
    7.5400  -34.5220  -36.1100 C   0  0  0  0  0  0  0  0  0  0  0  0
    9.3830  -36.2480  -34.3830 C   0  0  0  0  0  0  0  0  0  0  0  0
    9.2250  -33.9370  -33.4780 C   0  0  0  0  0  0  0  0  0  0  0  0
    5.7080  -34.7980  -34.4810 N   0  0  0  0  0  0  0  0  0  0  0  0
  1 13  1  0
  1  9  1  0
  5  2  2  0
  5  4  1  0
  6 16  1  0
  6  2  2  0
  7 14  1  0
  7 17  1  0
  7 10  1  0
  7  6  1  0
  8 12  1  0
  8  5  1  0
  9  3  1  0
 11  4  2  0
 12 11  1  0
 13 16  2  0
 15 10  1  0
 15 13  1  0
 17  8  2  0
M  END
$$$$

     RDKit          3D

  4  4  0  0  0  0  0  0  0  0999 V2000
    9.3310  -32.9380  -32.9370 C   0  0  0  0  0  0  0  0  0  0  0  0
    8.5860  -34.0540  -33.3280 C   0  0  0  0  0  0  0  0  0  0  0  0
   10.1240  -33.2970  -31.7700 O   0  0  0  0  0  0  0  0  0  0  0  0
    7.7570  -32.8730  -32.7300 C   0  0  0  0  0  0  0  0  0  0  0  0
  1  4  1  0
  1  3  1  0
  2  1  1  0
  2  4  1  0
M  END
$$$$

     RDKit          3D

 11 12  0  0  0  0  0  0  0  0999 V2000
    9.4160  -33.8390  -32.4670 C   0  0  0  0  0  0  0  0  0  0  0  0
   10.3730  -33.0490  -30.4210 N   0  0  0  0  0  0  0  0  0  0  0  0
    6.4750  -31.7500  -32.3310 C   0  0  0  0  0  0  0  0  0  0  0  0
    7.3590  -33.6470  -33.2530 C   0  0  0  0  0  0  0  0  0  0  0  0
    9.1990  -34.9220  -33.2480 N   0  0  0  0  0  0  0  0  0  0  0  0
    7.8470  -34.8250  -33.8970 C   0  0  0  0  0  0  0  0  0  0  0  0
    6.2070  -32.7580  -33.2290 C   0  0  0  0  0  0  0  0  0  0  0  0
   10.6160  -33.5380  -31.7420 C   0  0  0  0  0  0  0  0  0  0  0  0
    7.6950  -31.9520  -31.7670 N   0  0  0  0  0  0  0  0  0  0  0  0
    6.5640  -35.4060  -35.1560 S   0  0  0  0  0  0  0  0  0  0  0  0
    8.3080  -33.0000  -32.3360 C   0  0  0  0  0  0  0  0  0  0  0  0
  1 11  1  0
  1  8  1  0
  3  9  1  0
  4  7  1  0
  4 11  1  0
  5  1  2  0
  6  4  1  0
  6  5  2  0
  7  3  2  0
  8  2  1  0
 10  6  2  0
 11  9  2  0
M  END
$$$$

     RDKit          3D

 12 13  0  0  0  0  0  0  0  0999 V2000
    8.8730  -34.1680  -33.0480 C   0  0  0  0  0  0  0  0  0  0  0  0
    5.8460  -32.4710  -33.2130 C   0  0  0  0  0  0  0  0  0  0  0  0
   11.0280  -34.4430  -32.4000 N   0  0  0  0  0  0  0  0  0  0  0  0
   10.1140  -35.9970  -33.9930 N   0  0  0  0  0  0  0  0  0  0  0  0
    6.9670  -34.8510  -34.3790 C   0  0  0  0  0  0  0  0  0  0  0  0
    7.6130  -34.0060  -33.5190 C   0  0  0  0  0  0  0  0  0  0  0  0
    9.2340  -33.2620  -32.0780 C   0  0  0  0  0  0  0  0  0  0  0  0
    7.0580  -33.0000  -32.9400 N   0  0  0  0  0  0  0  0  0  0  0  0
   11.2310  -32.6620  -30.6750 C   0  0  0  0  0  0  0  0  0  0  0  0
    7.9710  -32.3330  -31.8900 S   0  0  0  0  0  0  0  0  0  0  0  0
   10.4880  -33.4070  -31.7900 C   0  0  0  0  0  0  0  0  0  0  0  0
    9.9690  -34.8890  -33.1650 C   0  0  0  0  0  0  0  0  0  0  0  0
  1  7  2  0
  2  8  1  0
  3 11  2  0
  4 12  1  0
  5  6  2  0
  6  1  1  0
  6  8  1  0
  7 10  1  0
  7 11  1  0
  8 10  1  0
 11  9  1  0
 12  1  1  0
 12  3  2  0
M  END
$$$$

     RDKit          3D

 13 15  0  0  0  0  0  0  0  0999 V2000
    8.0230  -34.0550  -33.4980 C   0  0  0  0  0  0  0  0  0  0  0  0
   11.9590  -33.5520  -30.7190 C   0  0  0  0  0  0  0  0  0  0  0  0
    7.4550  -33.0960  -32.8160 C   0  0  0  0  0  0  0  0  0  0  0  0
   11.4070  -33.9480  -31.9120 C   0  0  0  0  0  0  0  0  0  0  0  0
   11.2870  -32.7630  -29.8460 C   0  0  0  0  0  0  0  0  0  0  0  0
    9.4020  -32.7350  -31.4040 C   0  0  0  0  0  0  0  0  0  0  0  0
    8.0550  -32.4490  -31.7580 C   0  0  0  0  0  0  0  0  0  0  0  0
    7.6620  -35.0020  -34.4670 N   0  0  0  0  0  0  0  0  0  0  0  0
    9.7870  -34.9180  -34.3640 O   0  0  0  0  0  0  0  0  0  0  0  0
   10.0590  -33.6120  -32.2190 C   0  0  0  0  0  0  0  0  0  0  0  0
    9.3200  -34.0650  -33.3070 C   0  0  0  0  0  0  0  0  0  0  0  0
    8.7000  -35.3380  -34.9950 C   0  0  0  0  0  0  0  0  0  0  0  0
   10.0770  -32.2770  -30.2450 C   0  0  0  0  0  0  0  0  0  0  0  0
  1 11  1  0
  1  3  1  0
  2  5  1  0
  3  7  2  0
  4  2  2  0
  6 13  1  0
  7  6  1  0
  8  1  2  0
 10  4  1  0
 10  6  2  0
 11  9  1  0
 11 10  1  0
 12  8  1  0
 12  9  1  0
 13  5  2  0
M  END
$$$$

     RDKit          3D

 13 14  0  0  0  0  0  0  0  0999 V2000
    8.2310  -32.2620  -31.6050 C   0  0  0  0  0  0  0  0  0  0  0  0
    9.4620  -32.8700  -31.4470 C   0  0  0  0  0  0  0  0  0  0  0  0
   11.1090  -34.5180  -31.8560 O   0  0  0  0  0  0  0  0  0  0  0  0
    8.9940  -34.4190  -33.2170 C   0  0  0  0  0  0  0  0  0  0  0  0
    9.4520  -35.3680  -33.9930 O   0  0  0  0  0  0  0  0  0  0  0  0
   11.7070  -34.0610  -30.6790 C   0  0  0  0  0  0  0  0  0  0  0  0
    7.7640  -33.8620  -33.3870 C   0  0  0  0  0  0  0  0  0  0  0  0
    6.1280  -32.2050  -32.6970 C   0  0  0  0  0  0  0  0  0  0  0  0
    7.3620  -32.7450  -32.5490 C   0  0  0  0  0  0  0  0  0  0  0  0
    5.1070  -32.4030  -32.5330 O   0  0  0  0  0  0  0  0  0  0  0  0
    9.2800  -35.8220  -34.6850 C   0  0  0  0  0  0  0  0  0  0  0  0
    5.5520  -31.2400  -32.6350 N   0  0  0  0  0  0  0  0  0  0  0  0
    9.8660  -33.8650  -32.1770 C   0  0  0  0  0  0  0  0  0  0  0  0
  1  2  1  0
  3  6  1  0
  4 13  1  0
  5  4  1  0
  7  4  2  0
  7  9  1  0
  8 12  2  0
  8  9  1  0
  8 10  1  0
  9  1  2  0
 11  5  1  0
 12 10  1  0
 13  3  1  0
 13  2  2  0
M  END
$$$$

     RDKit          3D

 18 19  0  0  0  0  0  0  0  0999 V2000
    9.6490  -31.8870  -30.1130 Cl  0  0  0  0  0  0  0  0  0  0  0  0
    4.3100  -33.7860  -34.0500 C   0  0  0  0  0  0  0  0  0  0  0  0
    9.3920  -32.7570  -31.3800 C   0  0  0  0  0  0  0  0  0  0  0  0
    8.1400  -32.7040  -31.9890 N   0  0  0  0  0  0  0  0  0  0  0  0
    3.5600  -35.2630  -36.3100 C   0  0  0  0  0  0  0  0  0  0  0  0
    5.5360  -32.3050  -32.6600 O   0  0  0  0  0  0  0  0  0  0  0  0
   10.2390  -33.5700  -32.1760 C   0  0  0  0  0  0  0  0  0  0  0  0
    8.0440  -33.6570  -32.8340 C   0  0  0  0  0  0  0  0  0  0  0  0
   11.7390  -33.5690  -32.1420 C   0  0  0  0  0  0  0  0  0  0  0  0
    9.3300  -34.3750  -32.9120 C   0  0  0  0  0  0  0  0  0  0  0  0
    5.4650  -33.2090  -33.4760 C   0  0  0  0  0  0  0  0  0  0  0  0
    6.9280  -33.9280  -33.7130 C   0  0  0  0  0  0  0  0  0  0  0  0
   12.2380  -33.8180  -33.2050 O   0  0  0  0  0  0  0  0  0  0  0  0
   12.4560  -33.4460  -31.0770 O   0  0  0  0  0  0  0  0  0  0  0  0
    9.6810  -35.7160  -33.6680 C   0  0  0  0  0  0  0  0  0  0  0  0
    6.9200  -34.7230  -34.8790 C   0  0  0  0  0  0  0  0  0  0  0  0
    5.4640  -34.7730  -35.3050 C   0  0  0  0  0  0  0  0  0  0  0  0
    4.3800  -34.5660  -35.2740 C   0  0  0  0  0  0  0  0  0  0  0  0
  2 11  1  0
  3  1  1  0
  4  3  2  0
  7  9  1  0
  7  3  1  0
  8  4  2  0
  9 14  1  0
 10 15  1  0
 10  8  1  0
 10  7  1  0
 11  6  2  0
 12 11  1  0
 12  8  1  0
 13  9  2  0
 16 12  1  0
 17 18  1  0
 17 16  1  0
 18  5  1  0
 18  2  1  0
M  END
$$$$

     RDKit          3D

 12 14  0  0  0  0  0  0  0  0999 V2000
    9.4850  -35.8500  -33.0780 C   0  0  0  0  0  0  0  0  0  0  0  0
    6.8680  -34.3500  -34.2530 N   0  0  0  0  0  0  0  0  0  0  0  0
    8.9230  -35.5080  -35.5380 S   0  0  0  0  0  0  0  0  0  0  0  0
    7.7180  -31.9260  -31.8250 N   0  0  0  0  0  0  0  0  0  0  0  0
    6.8120  -33.4220  -33.4400 C   0  0  0  0  0  0  0  0  0  0  0  0
    8.0840  -33.7710  -33.0450 C   0  0  0  0  0  0  0  0  0  0  0  0
    7.6530  -35.3960  -34.3480 C   0  0  0  0  0  0  0  0  0  0  0  0
    8.3880  -35.0260  -33.3370 N   0  0  0  0  0  0  0  0  0  0  0  0
    6.6990  -32.1810  -32.7380 C   0  0  0  0  0  0  0  0  0  0  0  0
    8.6200  -32.9220  -32.0240 C   0  0  0  0  0  0  0  0  0  0  0  0
   10.1770  -35.5340  -34.3720 C   0  0  0  0  0  0  0  0  0  0  0  0
    9.8490  -32.9430  -31.0160 C   0  0  0  0  0  0  0  0  0  0  0  0
  2  5  2  0
  3 11  1  0
  5  9  1  0
  6  5  1  0
  6 10  1  0
  7  3  1  0
  7  2  1  0
  7  8  1  0
  8  1  1  0
  8  6  1  0
  9  4  1  0
 10  4  2  0
 10 12  1  0
 11  1  1  0
M  END
$$$$

     RDKit          3D

  8  8  0  0  0  0  0  0  0  0999 V2000
    9.0560  -34.5420  -33.5350 C   0  0  0  0  0  0  0  0  0  0  0  0
    9.9720  -34.2870  -32.5790 C   0  0  0  0  0  0  0  0  0  0  0  0
   10.6530  -33.1410  -30.5960 O   0  0  0  0  0  0  0  0  0  0  0  0
    9.7900  -33.2470  -31.5730 C   0  0  0  0  0  0  0  0  0  0  0  0
    8.7230  -32.4110  -31.5950 C   0  0  0  0  0  0  0  0  0  0  0  0
    8.0110  -33.7900  -33.6600 C   0  0  0  0  0  0  0  0  0  0  0  0
   11.2970  -34.6350  -32.6230 O   0  0  0  0  0  0  0  0  0  0  0  0
    7.8410  -32.6410  -32.6860 C   0  0  0  0  0  0  0  0  0  0  0  0
  1  2  1  0
  2  4  2  0
  4  3  1  0
  5  4  1  0
  6  1  2  0
  6  8  1  0
  7  2  1  0
  8  5  2  0
M  END
$$$$

     RDKit          3D

 12 12  0  0  0  0  0  0  0  0999 V2000
    9.5540  -33.4960  -32.7330 C   0  0  0  0  0  0  0  0  0  0  0  0
    8.1740  -33.1350  -32.6000 C   0  0  0  0  0  0  0  0  0  0  0  0
   10.0330  -32.7850  -30.5220 C   0  0  0  0  0  0  0  0  0  0  0  0
   11.5170  -34.3340  -33.8700 C   0  0  0  0  0  0  0  0  0  0  0  0
    7.1330  -33.5100  -33.4550 N   0  0  0  0  0  0  0  0  0  0  0  0
   10.3300  -33.5920  -31.5920 C   0  0  0  0  0  0  0  0  0  0  0  0
    5.7990  -33.7150  -33.9290 C   0  0  0  0  0  0  0  0  0  0  0  0
   10.1320  -34.2090  -33.8160 C   0  0  0  0  0  0  0  0  0  0  0  0
   11.6900  -33.5530  -31.6180 C   0  0  0  0  0  0  0  0  0  0  0  0
   12.2990  -33.9430  -32.8460 C   0  0  0  0  0  0  0  0  0  0  0  0
    7.7320  -32.4950  -31.6040 O   0  0  0  0  0  0  0  0  0  0  0  0
    4.7420  -32.8620  -33.3470 C   0  0  0  0  0  0  0  0  0  0  0  0
  1  2  1  0
  1  6  1  0
  2 11  2  0
  4  8  1  0
  4 10  2  0
  5  2  1  0
  6  3  1  0
  7  5  1  0
  7 12  1  0
  8  1  1  0
  9  6  1  0
 10  9  1  0
M  END
$$$$

     RDKit          3D

 18 20  0  0  0  0  0  0  0  0999 V2000
    9.3340  -33.9640  -33.7090 C   0  0  0  0  0  0  0  0  0  0  0  0
   10.5260  -32.3040  -29.3930 C   0  0  0  0  0  0  0  0  0  0  0  0
   10.9590  -33.8430  -31.6530 C   0  0  0  0  0  0  0  0  0  0  0  0
   11.6410  -33.0970  -29.5020 C   0  0  0  0  0  0  0  0  0  0  0  0
    6.1380  -31.4700  -31.6370 C   0  0  0  0  0  0  0  0  0  0  0  0
    7.0840  -34.0410  -34.0100 C   0  0  0  0  0  0  0  0  0  0  0  0
    4.2840  -32.0970  -31.4080 C   0  0  0  0  0  0  0  0  0  0  0  0
    9.6120  -32.3100  -30.4960 C   0  0  0  0  0  0  0  0  0  0  0  0
    5.2620  -32.3690  -32.5400 N   0  0  0  0  0  0  0  0  0  0  0  0
   11.9140  -33.8810  -30.6020 C   0  0  0  0  0  0  0  0  0  0  0  0
    8.6770  -35.2520  -35.4900 F   0  0  0  0  0  0  0  0  0  0  0  0
    7.4370  -33.2120  -33.0730 C   0  0  0  0  0  0  0  0  0  0  0  0
    9.7990  -33.1510  -31.5470 C   0  0  0  0  0  0  0  0  0  0  0  0
    8.2970  -34.8830  -34.2530 C   0  0  0  0  0  0  0  0  0  0  0  0
    8.7460  -33.2850  -32.6190 N   0  0  0  0  0  0  0  0  0  0  0  0
   10.4820  -33.6520  -33.9150 O   0  0  0  0  0  0  0  0  0  0  0  0
    8.2350  -36.0310  -33.5870 F   0  0  0  0  0  0  0  0  0  0  0  0
    6.5330  -32.2770  -32.3700 C   0  0  0  0  0  0  0  0  0  0  0  0
  1 15  1  0
  3 13  2  0
  3 10  1  0
  4  2  1  0
  6 12  1  0
  8  2  2  0
  9 18  1  0
  9  5  1  0
  9  7  1  0
 10  4  2  0
 11 14  1  0
 12 15  1  0
 12 18  2  3
 13  8  1  0
 14  6  1  0
 14  1  1  0
 14 17  1  0
 15 13  1  0
 16  1  2  0
 18  5  1  0
M  END
$$$$

     RDKit          3D

 10 10  0  0  0  0  0  0  0  0999 V2000
   11.7630  -33.6700  -32.0290 C   0  0  0  0  0  0  0  0  0  0  0  0
    5.5430  -34.6770  -34.3480 O   0  0  0  0  0  0  0  0  0  0  0  0
    9.9560  -34.4530  -33.4320 N   0  0  0  0  0  0  0  0  0  0  0  0
    8.2810  -33.2020  -32.5400 N   0  0  0  0  0  0  0  0  0  0  0  0
   10.3610  -33.7340  -32.4830 N   0  0  0  0  0  0  0  0  0  0  0  0
    6.4760  -34.6740  -34.4360 C   0  0  0  0  0  0  0  0  0  0  0  0
    7.6660  -34.8330  -34.1970 N   0  0  0  0  0  0  0  0  0  0  0  0
    9.2900  -32.9540  -32.0280 C   0  0  0  0  0  0  0  0  0  0  0  0
   11.9050  -33.4280  -30.4890 C   0  0  0  0  0  0  0  0  0  0  0  0
    8.7360  -34.3610  -33.3430 C   0  0  0  0  0  0  0  0  0  0  0  0
  1  9  1  0
  3 10  2  0
  3  5  1  0
  4  8  1  0
  5  1  1  0
  5  8  1  0
  6  2  2  0
  6  7  2  0
  7 10  1  0
 10  4  2  0
M  END
$$$$

     RDKit          3D

 27 32  0  0  0  0  0  0  0  0999 V2000
    3.9060  -32.7820  -33.1530 C   0  0  0  0  0  0  0  0  0  0  0  0
   13.2070  -33.9820  -33.9470 C   0  0  0  0  0  0  0  0  0  0  0  0
    8.8100  -32.6850  -31.6510 N   0  0  0  0  0  0  0  0  0  0  0  0
    9.4860  -33.4960  -31.8840 C   0  0  0  0  0  0  0  0  0  0  0  0
   12.3550  -32.9930  -31.9340 N   0  0  0  0  0  0  0  0  0  0  0  0
    8.1230  -35.6290  -35.5720 F   0  0  0  0  0  0  0  0  0  0  0  0
    4.1640  -31.4080  -31.4190 C   0  0  0  0  0  0  0  0  0  0  0  0
   11.7310  -33.6270  -31.7110 C   0  0  0  0  0  0  0  0  0  0  0  0
    5.2720  -32.7020  -32.8410 C   0  0  0  0  0  0  0  0  0  0  0  0
   11.7260  -35.9680  -34.5340 N   0  0  0  0  0  0  0  0  0  0  0  0
   10.5570  -34.1210  -29.7550 O   0  0  0  0  0  0  0  0  0  0  0  0
   13.3240  -33.1430  -33.0050 C   0  0  0  0  0  0  0  0  0  0  0  0
    3.3770  -33.5610  -34.2690 N   0  0  0  0  0  0  0  0  0  0  0  0
    7.5170  -33.3680  -33.4530 N   0  0  0  0  0  0  0  0  0  0  0  0
    7.6210  -32.4550  -32.3640 N   0  0  0  0  0  0  0  0  0  0  0  0
    9.6900  -35.1000  -34.0230 C   0  0  0  0  0  0  0  0  0  0  0  0
   12.0760  -34.8730  -33.8460 C   0  0  0  0  0  0  0  0  0  0  0  0
    6.4200  -32.5720  -32.7240 C   0  0  0  0  0  0  0  0  0  0  0  0
   10.6560  -33.2860  -30.6650 C   0  0  0  0  0  0  0  0  0  0  0  0
   11.1820  -32.8260  -29.1380 C   0  0  0  0  0  0  0  0  0  0  0  0
    9.9810  -34.4550  -32.8790 C   0  0  0  0  0  0  0  0  0  0  0  0
    8.6350  -34.4890  -34.9420 C   0  0  0  0  0  0  0  0  0  0  0  0
   10.4690  -36.0540  -34.6950 C   0  0  0  0  0  0  0  0  0  0  0  0
    3.2050  -31.9850  -32.3080 C   0  0  0  0  0  0  0  0  0  0  0  0
   11.3580  -34.4100  -32.8630 C   0  0  0  0  0  0  0  0  0  0  0  0
   11.6760  -33.3770  -29.3690 C   0  0  0  0  0  0  0  0  0  0  0  0
    5.4230  -31.9340  -31.7040 N   0  0  0  0  0  0  0  0  0  0  0  0
  1 24  2  0
  2 17  1  0
  2 12  2  0
  4  3  1  0
  5  8  2  0
  6 22  1  0
  9  1  1  0
  9 18  1  0
  9 27  1  0
 10 17  2  0
 11 26  1  0
 12  5  1  0
 13  1  1  0
 14 15  1  0
 15  3  1  0
 16 22  1  0
 16 21  1  0
 17 25  1  0
 18 14  1  0
 18 15  1  0
 18 27  1  0
 19  8  1  0
 19 11  1  0
 19 26  1  0
 21 25  2  0
 21  4  1  0
 23 10  1  0
 23 16  1  0
 24  7  1  0
 25  8  1  0
 26 20  1  0
 27  7  1  0
M  END
$$$$

     RDKit          3D

  4  3  0  0  0  0  0  0  0  0999 V2000
    7.6360  -34.7850  -34.2530 C   0  0  0  0  0  0  0  0  0  0  0  0
    8.0090  -32.6800  -32.7630 C   0  0  0  0  0  0  0  0  0  0  0  0
    8.4870  -33.8430  -33.5380 N   0  0  0  0  0  0  0  0  0  0  0  0
    9.8170  -34.0800  -33.3370 O   0  0  0  0  0  0  0  0  0  0  0  0
  1  3  1  0
  3  4  1  0
  3  2  1  0
M  END
$$$$

     RDKit          3D

 25 28  0  0  0  0  0  0  0  0999 V2000
    7.9750  -36.5230  -34.6230 C   0  0  0  0  0  0  0  0  0  0  0  0
   11.1370  -33.2200  -30.9090 C   0  0  0  0  0  0  0  0  0  0  0  0
   11.2930  -31.8510  -29.0690 C   0  0  0  0  0  0  0  0  0  0  0  0
   10.6750  -33.7430  -32.0660 C   0  0  0  0  0  0  0  0  0  0  0  0
    9.7500  -37.6240  -33.0570 C   0  0  0  0  0  0  0  0  0  0  0  0
    6.4030  -34.5610  -34.3430 C   0  0  0  0  0  0  0  0  0  0  0  0
   12.2150  -32.7520  -29.0170 C   0  0  0  0  0  0  0  0  0  0  0  0
   10.3790  -40.0660  -33.5600 O   0  0  0  0  0  0  0  0  0  0  0  0
   12.1340  -33.8310  -30.0720 C   0  0  0  0  0  0  0  0  0  0  0  0
   10.8100  -35.4460  -35.1570 C   0  0  0  0  0  0  0  0  0  0  0  0
    7.3360  -33.9470  -33.4070 C   0  0  0  0  0  0  0  0  0  0  0  0
   11.3680  -36.8660  -34.5810 C   0  0  0  0  0  0  0  0  0  0  0  0
    6.9190  -32.8570  -32.6740 C   0  0  0  0  0  0  0  0  0  0  0  0
   10.1390  -36.4880  -34.0090 C   0  0  0  0  0  0  0  0  0  0  0  0
    8.6540  -34.5560  -33.2560 C   0  0  0  0  0  0  0  0  0  0  0  0
    6.9250  -35.7210  -35.2220 C   0  0  0  0  0  0  0  0  0  0  0  0
   10.2820  -32.3450  -30.1130 C   0  0  0  0  0  0  0  0  0  0  0  0
    3.4880  -32.6050  -34.0280 N   0  0  0  0  0  0  0  0  0  0  0  0
    5.6480  -32.4500  -32.8670 C   0  0  0  0  0  0  0  0  0  0  0  0
    8.8640  -35.7610  -33.8890 N   0  0  0  0  0  0  0  0  0  0  0  0
   11.5030  -34.2670  -32.7560 O   0  0  0  0  0  0  0  0  0  0  0  0
    9.4040  -38.9650  -33.7700 C   0  0  0  0  0  0  0  0  0  0  0  0
    9.3210  -33.8140  -32.3810 N   0  0  0  0  0  0  0  0  0  0  0  0
    5.2330  -34.0700  -34.5680 N   0  0  0  0  0  0  0  0  0  0  0  0
    4.8230  -33.0430  -33.8460 C   0  0  0  0  0  0  0  0  0  0  0  0
  1 20  1  0
  2 17  1  0
  2  9  1  0
  3  7  1  0
  4  2  1  0
  6 11  1  0
  9  7  1  0
 10 12  1  0
 10 14  1  0
 11 15  2  0
 11 13  1  0
 12 14  1  0
 14 20  1  0
 14  5  1  0
 15 23  1  0
 16  1  1  0
 16  6  1  0
 17  3  1  0
 18 25  1  0
 19 13  2  0
 20 15  1  0
 21  4  2  0
 22  8  1  0
 22  5  1  0
 23  4  1  0
 24  6  2  0
 24 25  2  0
 25 19  1  0
M  END
$$$$

     RDKit          3D

 12 13  0  0  0  0  0  0  0  0999 V2000
   10.7290  -33.1400  -30.9310 C   0  0  0  0  0  0  0  0  0  0  0  0
    8.3270  -34.3850  -33.2460 C   0  0  0  0  0  0  0  0  0  0  0  0
    9.4900  -34.3740  -32.6600 O   0  0  0  0  0  0  0  0  0  0  0  0
    9.5570  -33.2480  -31.8210 C   0  0  0  0  0  0  0  0  0  0  0  0
   11.8540  -33.3880  -31.5240 O   0  0  0  0  0  0  0  0  0  0  0  0
    6.2930  -33.0460  -33.3720 C   0  0  0  0  0  0  0  0  0  0  0  0
   10.5510  -32.8620  -29.7680 O   0  0  0  0  0  0  0  0  0  0  0  0
    7.8970  -35.3090  -34.2260 C   0  0  0  0  0  0  0  0  0  0  0  0
    6.6240  -35.1330  -34.7380 C   0  0  0  0  0  0  0  0  0  0  0  0
    5.8590  -33.9850  -34.3190 C   0  0  0  0  0  0  0  0  0  0  0  0
    7.5890  -33.2530  -32.8200 C   0  0  0  0  0  0  0  0  0  0  0  0
    8.3590  -32.6360  -31.9680 N   0  0  0  0  0  0  0  0  0  0  0  0
  1  7  1  0
  2 11  1  0
  2  3  1  0
  3  4  1  0
  4  1  1  0
  5  1  2  0
  6 11  1  0
  8  2  2  0
  9 10  2  0
  9  8  1  0
 10  6  1  0
 11 12  2  0
 12  4  2  0
M  END
$$$$

     RDKit          3D

 21 24  0  0  0  0  0  0  0  0999 V2000
    6.9780  -32.9800  -33.0210 C   0  0  0  0  0  0  0  0  0  0  0  0
    5.7130  -32.4030  -32.7710 C   0  0  0  0  0  0  0  0  0  0  0  0
    4.7410  -32.9990  -33.4780 N   0  0  0  0  0  0  0  0  0  0  0  0
    8.2330  -32.7180  -32.3710 C   0  0  0  0  0  0  0  0  0  0  0  0
    5.3010  -34.0530  -34.1710 C   0  0  0  0  0  0  0  0  0  0  0  0
    5.0010  -35.0450  -35.1990 C   0  0  0  0  0  0  0  0  0  0  0  0
    6.2720  -35.6610  -35.4260 C   0  0  0  0  0  0  0  0  0  0  0  0
    8.6780  -35.2640  -34.5950 N   0  0  0  0  0  0  0  0  0  0  0  0
   11.6720  -33.8040  -31.8550 C   0  0  0  0  0  0  0  0  0  0  0  0
   10.7510  -33.3320  -28.0390 F   0  0  0  0  0  0  0  0  0  0  0  0
   10.9880  -33.3550  -29.3450 C   0  0  0  0  0  0  0  0  0  0  0  0
   10.3790  -33.6560  -31.6710 C   0  0  0  0  0  0  0  0  0  0  0  0
    9.4460  -34.8950  -33.5050 C   0  0  0  0  0  0  0  0  0  0  0  0
    9.3720  -33.7210  -32.7480 N   0  0  0  0  0  0  0  0  0  0  0  0
   10.3220  -35.7340  -33.1890 O   0  0  0  0  0  0  0  0  0  0  0  0
    6.6840  -34.0090  -33.9020 C   0  0  0  0  0  0  0  0  0  0  0  0
   12.3190  -33.3210  -29.6670 C   0  0  0  0  0  0  0  0  0  0  0  0
   10.0220  -33.4200  -30.3600 C   0  0  0  0  0  0  0  0  0  0  0  0
    7.2880  -35.0730  -34.6890 C   0  0  0  0  0  0  0  0  0  0  0  0
   12.2640  -33.9050  -33.5630 Cl  0  0  0  0  0  0  0  0  0  0  0  0
   12.7310  -33.5340  -30.9590 C   0  0  0  0  0  0  0  0  0  0  0  0
  1  2  2  0
  1  4  1  0
  3  2  1  0
  5 16  1  0
  5  3  2  0
  6  5  1  0
  7  6  2  0
  7 19  1  0
  8 13  2  0
  9 12  2  0
  9 21  1  0
 11 10  1  0
 12 18  1  0
 13 15  2  0
 13 14  1  0
 14  4  1  0
 14 12  1  0
 16 19  1  0
 16  1  1  0
 17 11  1  0
 18 11  2  0
 19  8  2  0
 20  9  1  0
 21 17  2  0
M  END
$$$$

     RDKit          3D

 27 32  0  0  0  0  0  0  0  0999 V2000
   11.0700  -34.0400  -33.1380 C   0  0  0  0  0  0  0  0  0  0  0  0
    4.2580  -32.4470  -33.2830 N   0  0  0  0  0  0  0  0  0  0  0  0
   12.1800  -32.6940  -30.7940 C   0  0  0  0  0  0  0  0  0  0  0  0
    9.5430  -37.4050  -34.1730 C   0  0  0  0  0  0  0  0  0  0  0  0
    9.8930  -33.2900  -32.5450 C   0  0  0  0  0  0  0  0  0  0  0  0
   11.9630  -37.3700  -34.7990 C   0  0  0  0  0  0  0  0  0  0  0  0
   11.0110  -33.6430  -29.1010 F   0  0  0  0  0  0  0  0  0  0  0  0
    9.6420  -36.0310  -33.8240 C   0  0  0  0  0  0  0  0  0  0  0  0
    6.8830  -35.2260  -34.2970 S   0  0  0  0  0  0  0  0  0  0  0  0
   10.6840  -38.0390  -34.7110 C   0  0  0  0  0  0  0  0  0  0  0  0
    4.3090  -32.4420  -32.1690 O   0  0  0  0  0  0  0  0  0  0  0  0
    4.3160  -33.9960  -34.7800 O   0  0  0  0  0  0  0  0  0  0  0  0
    8.4220  -35.0520  -33.7300 C   0  0  0  0  0  0  0  0  0  0  0  0
    6.3170  -33.6330  -33.7270 C   0  0  0  0  0  0  0  0  0  0  0  0
    9.8370  -33.1240  -31.0630 C   0  0  0  0  0  0  0  0  0  0  0  0
   12.3120  -39.3810  -35.7010 C   0  0  0  0  0  0  0  0  0  0  0  0
   12.9720  -33.1150  -32.1050 C   0  0  0  0  0  0  0  0  0  0  0  0
   12.3230  -33.4090  -33.2940 O   0  0  0  0  0  0  0  0  0  0  0  0
    8.6310  -33.7060  -33.1880 N   0  0  0  0  0  0  0  0  0  0  0  0
    3.0600  -32.0150  -32.6910 O   0  0  0  0  0  0  0  0  0  0  0  0
   10.9460  -35.4260  -33.6790 C   0  0  0  0  0  0  0  0  0  0  0  0
   11.0940  -33.5590  -30.4290 C   0  0  0  0  0  0  0  0  0  0  0  0
   12.8570  -38.1330  -35.4820 O   0  0  0  0  0  0  0  0  0  0  0  0
    7.4320  -32.9230  -33.1220 C   0  0  0  0  0  0  0  0  0  0  0  0
   10.9130  -39.4290  -35.1740 C   0  0  0  0  0  0  0  0  0  0  0  0
    4.9640  -33.3760  -33.8650 C   0  0  0  0  0  0  0  0  0  0  0  0
   12.1010  -36.0470  -34.1970 C   0  0  0  0  0  0  0  0  0  0  0  0
  1 21  1  0
  1  5  1  0
  2 20  1  0
  2 11  1  0
  3 22  1  0
  4  8  1  0
  5 15  1  0
  6 10  1  0
  6 27  2  0
  8 13  1  0
  8 21  2  0
  9 14  1  0
 10  4  2  0
 12 26  2  0
 13  9  1  0
 13 19  1  0
 14 24  2  0
 15 22  1  0
 16 23  1  0
 16 25  2  0
 17  3  1  0
 18  1  1  0
 18 17  1  0
 19 24  1  0
 19  5  1  0
 20 11  1  0
 22  7  1  0
 23  6  1  0
 25 10  1  0
 26 14  1  0
 26  2  1  0
 27 21  1  0
M  END
$$$$

     RDKit          3D

 13 14  0  0  0  0  0  0  0  0999 V2000
    8.9360  -32.6380  -31.6060 N   0  0  0  0  0  0  0  0  0  0  0  0
    5.8260  -34.4580  -34.6390 O   0  0  0  0  0  0  0  0  0  0  0  0
    6.0920  -33.6100  -33.8010 C   0  0  0  0  0  0  0  0  0  0  0  0
    7.3820  -33.5580  -33.0480 C   0  0  0  0  0  0  0  0  0  0  0  0
    5.2090  -32.6700  -33.4610 N   0  0  0  0  0  0  0  0  0  0  0  0
    8.6230  -34.3720  -33.0690 C   0  0  0  0  0  0  0  0  0  0  0  0
   12.0100  -33.4630  -32.1050 C   0  0  0  0  0  0  0  0  0  0  0  0
   10.7920  -34.1360  -31.6070 N   0  0  0  0  0  0  0  0  0  0  0  0
    8.6540  -35.3330  -33.8970 O   0  0  0  0  0  0  0  0  0  0  0  0
    6.6380  -31.5100  -31.8590 C   0  0  0  0  0  0  0  0  0  0  0  0
    9.5370  -33.6110  -32.1310 C   0  0  0  0  0  0  0  0  0  0  0  0
    5.4230  -31.7470  -32.5280 C   0  0  0  0  0  0  0  0  0  0  0  0
    7.6780  -32.4830  -32.0820 C   0  0  0  0  0  0  0  0  0  0  0  0
  2  3  2  0
  3  5  2  0
  4  3  1  0
  4 13  1  0
  5 12  1  0
  6  4  1  0
  6 11  1  0
  7  8  1  0
  9  6  2  0
 11  8  1  0
 11  1  2  0
 12 10  2  0
 13 10  1  0
 13  1  2  0
M  END
$$$$

     RDKit          3D

 18 22  0  0  0  0  0  0  0  0999 V2000
    4.5780  -34.7070  -36.0020 O   0  0  0  0  0  0  0  0  0  0  0  0
    7.6450  -34.1890  -33.3410 C   0  0  0  0  0  0  0  0  0  0  0  0
    5.5030  -31.2580  -31.1980 C   0  0  0  0  0  0  0  0  0  0  0  0
    5.3800  -34.3390  -34.9180 C   0  0  0  0  0  0  0  0  0  0  0  0
    7.5500  -32.1950  -32.0420 C   0  0  0  0  0  0  0  0  0  0  0  0
    9.5120  -33.4560  -32.6870 C   0  0  0  0  0  0  0  0  0  0  0  0
    6.5390  -35.2150  -34.9630 C   0  0  0  0  0  0  0  0  0  0  0  0
    4.8110  -32.0590  -32.0930 C   0  0  0  0  0  0  0  0  0  0  0  0
    5.4650  -32.9440  -32.9530 C   0  0  0  0  0  0  0  0  0  0  0  0
    3.0380  -31.9830  -32.0350 Cl  0  0  0  0  0  0  0  0  0  0  0  0
    8.8580  -32.2530  -32.1300 O   0  0  0  0  0  0  0  0  0  0  0  0
    8.7360  -34.5070  -32.6060 C   0  0  0  0  0  0  0  0  0  0  0  0
    9.3250  -35.1290  -34.6360 C   0  0  0  0  0  0  0  0  0  0  0  0
    6.8110  -33.0270  -33.0110 C   0  0  0  0  0  0  0  0  0  0  0  0
    4.7590  -33.6110  -33.9280 N   0  0  0  0  0  0  0  0  0  0  0  0
    6.8520  -31.4180  -31.1760 C   0  0  0  0  0  0  0  0  0  0  0  0
   10.1620  -34.8870  -33.0170 C   0  0  0  0  0  0  0  0  0  0  0  0
    8.0110  -34.9320  -34.3290 C   0  0  0  0  0  0  0  0  0  0  0  0
  1  4  2  0
  2 14  1  0
  2 12  1  0
  3 16  1  0
  4 15  2  0
  5 16  2  0
  6 12  1  0
  6 11  1  0
  7  4  1  0
  7 18  1  0
  8 10  1  0
  8  3  2  0
  9  8  1  0
 11  5  1  0
 13 18  1  0
 13 17  1  0
 14  9  1  0
 14  5  1  0
 15  9  2  0
 17  6  1  0
 17 12  1  0
 18  2  1  0
M  END
$$$$
