
     RDKit          3D

  4  3  0  0  0  0  0  0  0  0999 V2000
  -17.0170  -23.5090   -6.2880 C   0  0  0  0  0  0  0  0  0  0  0  0
  -18.2860  -22.1450   -8.2450 S   0  0  0  0  0  0  0  0  0  0  0  0
  -16.4070  -22.1960   -6.2650 O   0  0  0  0  0  0  0  0  0  0  0  0
  -18.1010  -23.6920   -7.3880 C   0  0  0  0  0  0  0  0  0  0  0  0
  1  3  1  0
  2  4  1  0
  4  1  1  0
M  END
$$$$

     RDKit          3D

 14 17  0  0  0  0  0  0  0  0999 V2000
  -20.5440  -23.7350   -8.9080 N   0  0  0  0  0  0  0  0  0  0  0  0
  -20.0150  -22.2550   -5.6990 C   0  0  0  0  0  0  0  0  0  0  0  0
  -17.5860  -25.8930   -9.1790 C   0  0  0  0  0  0  0  0  0  0  0  0
  -21.1050  -22.6220   -6.6900 C   0  0  0  0  0  0  0  0  0  0  0  0
  -16.1910  -25.7730   -9.0780 C   0  0  0  0  0  0  0  0  0  0  0  0
  -17.8580  -23.9310   -7.8360 C   0  0  0  0  0  0  0  0  0  0  0  0
  -20.4410  -22.4440   -8.0200 C   0  0  0  0  0  0  0  0  0  0  0  0
  -19.8810  -25.0000   -8.8100 N   0  0  0  0  0  0  0  0  0  0  0  0
  -15.6620  -24.6550   -8.3370 C   0  0  0  0  0  0  0  0  0  0  0  0
  -18.9730  -22.1840   -6.2940 C   0  0  0  0  0  0  0  0  0  0  0  0
  -16.4880  -23.8220   -7.8570 C   0  0  0  0  0  0  0  0  0  0  0  0
  -19.0390  -22.0520   -7.9410 C   0  0  0  0  0  0  0  0  0  0  0  0
  -18.4800  -23.0890   -7.0590 N   0  0  0  0  0  0  0  0  0  0  0  0
  -18.4600  -24.9760   -8.6660 C   0  0  0  0  0  0  0  0  0  0  0  0
  1  8  1  0
  1  7  1  0
  3  5  2  0
  3 14  1  0
  4  2  1  0
  5  9  1  0
  6 11  1  0
  6 13  1  0
  7 12  1  0
  7  4  1  0
  8 14  2  0
  9 11  2  0
 10  2  1  0
 12 13  1  0
 12 10  1  0
 13 10  1  0
 14  6  1  0
M  END
$$$$

     RDKit          3D

  8  8  0  0  0  0  0  0  0  0999 V2000
  -16.2840  -22.3880   -7.7310 C   0  0  0  0  0  0  0  0  0  0  0  0
  -15.9470  -23.8280   -7.0320 C   0  0  0  0  0  0  0  0  0  0  0  0
  -18.2490  -23.8420   -8.7630 C   0  0  0  0  0  0  0  0  0  0  0  0
  -17.7620  -22.6000   -8.3830 C   0  0  0  0  0  0  0  0  0  0  0  0
  -19.5130  -23.9110   -8.8730 O   0  0  0  0  0  0  0  0  0  0  0  0
  -17.0740  -23.8460   -5.9620 C   0  0  0  0  0  0  0  0  0  0  0  0
  -15.9900  -24.6480   -8.1010 C   0  0  0  0  0  0  0  0  0  0  0  0
  -17.4240  -25.0670   -8.5830 C   0  0  0  0  0  0  0  0  0  0  0  0
  1  2  1  0
  2  6  1  0
  3  8  1  0
  3  4  1  0
  4  1  1  0
  5  3  2  0
  7  2  1  0
  8  7  1  0
M  END
$$$$

     RDKit          3D

  9  9  0  0  0  0  0  0  0  0999 V2000
  -18.2640  -24.6440   -8.8000 C   0  0  0  0  0  0  0  0  0  0  0  0
  -16.4060  -26.1530   -8.8010 N   0  0  0  0  0  0  0  0  0  0  0  0
  -17.6210  -25.8580   -9.1560 C   0  0  0  0  0  0  0  0  0  0  0  0
  -19.3690  -22.2840   -7.8530 C   0  0  0  0  0  0  0  0  0  0  0  0
  -20.2010  -23.2770   -8.2570 C   0  0  0  0  0  0  0  0  0  0  0  0
  -19.6580  -24.4760   -8.7270 C   0  0  0  0  0  0  0  0  0  0  0  0
  -16.8680  -21.2670   -7.5070 Cl  0  0  0  0  0  0  0  0  0  0  0  0
  -17.5570  -23.6260   -8.6620 C   0  0  0  0  0  0  0  0  0  0  0  0
  -17.9780  -22.5130   -8.0050 C   0  0  0  0  0  0  0  0  0  0  0  0
  1  6  2  0
  1  8  1  0
  3  2  2  0
  3  1  1  0
  5  4  2  0
  6  5  1  0
  8  9  2  0
  9  4  1  0
  9  7  1  0
M  END
$$$$

     RDKit          3D

  6  5  0  0  0  0  0  0  0  0999 V2000
  -14.4290  -23.7070   -7.6260 C   0  0  0  0  0  0  0  0  0  0  0  0
  -17.8700  -23.9140   -8.1950 C   0  0  0  0  0  0  0  0  0  0  0  0
  -16.7560  -23.2850   -8.8070 C   0  0  0  0  0  0  0  0  0  0  0  0
  -18.3150  -23.5330   -7.0740 O   0  0  0  0  0  0  0  0  0  0  0  0
  -15.7030  -23.3270   -7.8910 O   0  0  0  0  0  0  0  0  0  0  0  0
  -18.3940  -24.8990   -8.9330 O   0  0  0  0  0  0  0  0  0  0  0  0
  2  4  1  0
  3  2  1  0
  3  5  1  0
  5  1  1  0
  6  2  2  0
M  END
$$$$

     RDKit          3D

  6  5  0  0  0  0  0  0  0  0999 V2000
  -17.7870  -22.6840   -8.1850 C   0  0  0  0  0  0  0  0  0  0  0  0
  -15.3160  -24.3110   -9.1900 N   0  0  0  0  0  0  0  0  0  0  0  0
  -17.2970  -23.8090   -7.7660 C   0  0  0  0  0  0  0  0  0  0  0  0
  -15.6660  -24.1990   -7.7880 C   0  0  0  0  0  0  0  0  0  0  0  0
  -18.2570  -23.3970   -6.1100 Cl  0  0  0  0  0  0  0  0  0  0  0  0
  -19.2440  -23.2190   -8.8750 O   0  0  0  0  0  0  0  0  0  0  0  0
  1  3  1  0
  2  4  1  0
  3  5  1  0
  4  3  1  0
  6  1  1  0
M  END
$$$$

     RDKit          3D

 13 14  0  0  0  0  0  0  0  0999 V2000
  -13.5570  -23.5840   -7.0340 C   0  0  0  0  0  0  0  0  0  0  0  0
  -15.8650  -22.7670   -7.4650 C   0  0  0  0  0  0  0  0  0  0  0  0
  -19.1100  -23.8870   -8.6280 C   0  0  0  0  0  0  0  0  0  0  0  0
  -19.4780  -22.8280   -7.9030 C   0  0  0  0  0  0  0  0  0  0  0  0
  -16.7150  -25.1940   -8.7560 C   0  0  0  0  0  0  0  0  0  0  0  0
  -14.9900  -23.7440   -7.7100 C   0  0  0  0  0  0  0  0  0  0  0  0
  -15.3930  -24.9510   -8.6550 C   0  0  0  0  0  0  0  0  0  0  0  0
  -17.6950  -24.1540   -8.4380 C   0  0  0  0  0  0  0  0  0  0  0  0
  -18.4000  -22.2530   -7.4630 N   0  0  0  0  0  0  0  0  0  0  0  0
  -20.9280  -22.3880   -7.6720 C   0  0  0  0  0  0  0  0  0  0  0  0
  -17.1780  -23.0530   -7.7930 C   0  0  0  0  0  0  0  0  0  0  0  0
  -19.7330  -24.5370   -9.4640 O   0  0  0  0  0  0  0  0  0  0  0  0
  -20.9640  -21.0520   -7.4160 O   0  0  0  0  0  0  0  0  0  0  0  0
  3  8  1  0
  3  4  1  0
  4 10  1  0
  4  9  2  0
  5  7  1  0
  5  8  2  0
  6  2  1  0
  6  1  1  0
  7  6  1  0
  8 11  1  0
 10 13  1  0
 11  2  1  0
 11  9  2  0
 12  3  2  0
M  END
$$$$

     RDKit          3D

 11 11  0  0  0  0  0  0  0  0999 V2000
  -19.6650  -22.3430   -7.8470 N   0  0  0  0  0  0  0  0  0  0  0  0
  -16.1990  -24.9950   -8.1250 C   0  0  0  0  0  0  0  0  0  0  0  0
  -16.3350  -23.7380   -7.3770 C   0  0  0  0  0  0  0  0  0  0  0  0
  -18.2440  -22.9550   -7.9230 C   0  0  0  0  0  0  0  0  0  0  0  0
  -18.6290  -24.2170   -8.6470 C   0  0  0  0  0  0  0  0  0  0  0  0
  -17.7520  -21.6080   -6.4120 C   0  0  0  0  0  0  0  0  0  0  0  0
  -17.5660  -25.0690   -8.8090 C   0  0  0  0  0  0  0  0  0  0  0  0
  -15.2450  -23.4620   -6.6110 O   0  0  0  0  0  0  0  0  0  0  0  0
  -17.2070  -22.9010   -6.9020 C   0  0  0  0  0  0  0  0  0  0  0  0
  -19.6450  -24.2990   -9.3270 O   0  0  0  0  0  0  0  0  0  0  0  0
  -17.2360  -20.4920   -7.0900 O   0  0  0  0  0  0  0  0  0  0  0  0
  2  3  1  0
  3  9  1  0
  3  8  1  0
  4  1  1  0
  4  9  1  0
  5  4  1  0
  7  5  1  0
  7  2  1  0
  9  6  1  0
 10  5  2  0
 11  6  1  0
M  END
$$$$

     RDKit          3D

 14 15  0  0  0  0  0  0  0  0999 V2000
  -17.8900  -23.3070   -7.8220 C   0  0  0  0  0  0  0  0  0  0  0  0
  -14.9450  -24.2440   -7.4240 C   0  0  0  0  0  0  0  0  0  0  0  0
  -15.4150  -25.1320   -8.4460 C   0  0  0  0  0  0  0  0  0  0  0  0
  -18.8420  -20.8220   -5.2710 C   0  0  0  0  0  0  0  0  0  0  0  0
  -17.8830  -24.4980   -8.4820 C   0  0  0  0  0  0  0  0  0  0  0  0
  -19.5520  -21.9180   -8.7670 O   0  0  0  0  0  0  0  0  0  0  0  0
  -20.3300  -23.1280   -7.1220 C   0  0  0  0  0  0  0  0  0  0  0  0
  -19.1280  -22.3430   -7.5740 C   0  0  0  0  0  0  0  0  0  0  0  0
  -17.1890  -21.4730   -6.5940 N   0  0  0  0  0  0  0  0  0  0  0  0
  -18.7240  -21.2400   -6.5940 C   0  0  0  0  0  0  0  0  0  0  0  0
  -16.7650  -22.6210   -7.0580 C   0  0  0  0  0  0  0  0  0  0  0  0
  -19.8890  -20.7690   -4.3410 C   0  0  0  0  0  0  0  0  0  0  0  0
  -16.6990  -25.4100   -8.7960 C   0  0  0  0  0  0  0  0  0  0  0  0
  -15.3880  -23.0980   -6.9040 C   0  0  0  0  0  0  0  0  0  0  0  0
  1  5  1  0
  1  8  1  0
  1 11  1  0
  2 14  1  0
  3  2  1  0
  4 12  1  0
  6  8  1  0
  8  7  1  0
  8 10  1  0
  9 10  1  0
 10  4  1  0
 11 14  1  0
 11  9  2  0
 13  5  2  0
 13  3  1  0
M  END
$$$$

     RDKit          3D

 11 13  0  0  0  0  0  0  0  0999 V2000
  -20.7110  -23.6690   -8.4180 O   0  0  0  0  0  0  0  0  0  0  0  0
  -19.0860  -22.4140   -7.8640 N   0  0  0  0  0  0  0  0  0  0  0  0
  -18.6100  -23.6240   -8.3900 C   0  0  0  0  0  0  0  0  0  0  0  0
  -16.2140  -23.3690   -8.0180 C   0  0  0  0  0  0  0  0  0  0  0  0
  -15.8190  -24.6120   -8.6580 C   0  0  0  0  0  0  0  0  0  0  0  0
  -14.3760  -23.5220   -7.1850 C   0  0  0  0  0  0  0  0  0  0  0  0
  -15.5540  -23.0080   -6.8000 N   0  0  0  0  0  0  0  0  0  0  0  0
  -20.2780  -22.4780   -8.4210 C   0  0  0  0  0  0  0  0  0  0  0  0
  -17.1700  -23.8710   -8.6910 C   0  0  0  0  0  0  0  0  0  0  0  0
  -14.2780  -24.0650   -8.4010 C   0  0  0  0  0  0  0  0  0  0  0  0
  -19.6190  -24.4740   -8.4990 C   0  0  0  0  0  0  0  0  0  0  0  0
  3  2  2  0
  4  7  1  0
  5 10  1  0
  5  4  1  0
  6  7  1  0
  8  1  1  0
  8  2  1  0
  9  5  1  0
  9  3  1  0
  9  4  1  0
 10  6  1  0
 11  1  1  0
 11  3  1  0
M  END
$$$$

     RDKit          3D

 10 11  0  0  0  0  0  0  0  0999 V2000
  -18.6280  -23.3660   -8.3420 C   0  0  0  0  0  0  0  0  0  0  0  0
  -19.5720  -24.2310   -8.8370 C   0  0  0  0  0  0  0  0  0  0  0  0
  -18.1410  -21.1580   -7.4160 C   0  0  0  0  0  0  0  0  0  0  0  0
  -17.8590  -25.8360   -9.1050 C   0  0  0  0  0  0  0  0  0  0  0  0
  -19.1470  -25.5000   -9.2320 C   0  0  0  0  0  0  0  0  0  0  0  0
  -16.4240  -22.7020   -7.6850 O   0  0  0  0  0  0  0  0  0  0  0  0
  -16.9160  -24.9330   -8.5810 C   0  0  0  0  0  0  0  0  0  0  0  0
  -17.3040  -23.6110   -8.1250 C   0  0  0  0  0  0  0  0  0  0  0  0
  -19.0770  -22.0940   -7.8730 C   0  0  0  0  0  0  0  0  0  0  0  0
  -16.7790  -21.4900   -7.4070 C   0  0  0  0  0  0  0  0  0  0  0  0
  1  8  1  0
  1  9  2  0
  2  1  1  0
  3 10  2  0
  4  7  1  0
  5  4  2  0
  5  2  1  0
  6 10  1  0
  7  8  2  0
  8  6  1  0
  9  3  1  0
M  END
$$$$

     RDKit          3D

 13 14  0  0  0  0  0  0  0  0999 V2000
  -15.8060  -25.6070   -7.7150 F   0  0  0  0  0  0  0  0  0  0  0  0
  -15.4820  -23.6800   -6.6260 F   0  0  0  0  0  0  0  0  0  0  0  0
  -18.0870  -22.2010   -6.1330 N   0  0  0  0  0  0  0  0  0  0  0  0
  -19.3410  -24.2740   -9.2990 C   0  0  0  0  0  0  0  0  0  0  0  0
  -19.3900  -22.4750   -7.8190 C   0  0  0  0  0  0  0  0  0  0  0  0
  -19.7120  -21.1870   -7.0580 N   0  0  0  0  0  0  0  0  0  0  0  0
  -19.2410  -21.4360   -6.0010 C   0  0  0  0  0  0  0  0  0  0  0  0
  -18.0230  -24.5640   -8.9570 C   0  0  0  0  0  0  0  0  0  0  0  0
  -15.8090  -24.2730   -7.8180 C   0  0  0  0  0  0  0  0  0  0  0  0
  -18.1040  -22.9060   -7.2840 C   0  0  0  0  0  0  0  0  0  0  0  0
  -19.9840  -23.2340   -8.8210 N   0  0  0  0  0  0  0  0  0  0  0  0
  -17.3470  -23.8850   -8.0260 C   0  0  0  0  0  0  0  0  0  0  0  0
  -14.9720  -23.9590   -8.8220 F   0  0  0  0  0  0  0  0  0  0  0  0
  3  7  1  0
  4  8  2  0
  4 11  1  0
  5 10  1  0
  5  6  2  0
  6  7  1  0
  8 12  1  0
  9  1  1  0
  9  2  1  0
 10  3  2  0
 11  5  2  0
 12  9  1  0
 12 10  1  0
 13  9  1  0
M  END
$$$$

     RDKit          3D

  7  7  0  0  0  0  0  0  0  0999 V2000
  -18.5240  -23.4770   -8.3980 C   0  0  0  0  0  0  0  0  0  0  0  0
  -16.3620  -24.4540   -7.8390 C   0  0  0  0  0  0  0  0  0  0  0  0
  -18.7270  -23.1830   -6.9790 C   0  0  0  0  0  0  0  0  0  0  0  0
  -19.5820  -23.2580   -9.2230 O   0  0  0  0  0  0  0  0  0  0  0  0
  -17.4230  -24.2860   -8.7420 C   0  0  0  0  0  0  0  0  0  0  0  0
  -16.4310  -23.7230   -6.6690 O   0  0  0  0  0  0  0  0  0  0  0  0
  -17.5000  -23.1510   -6.2010 C   0  0  0  0  0  0  0  0  0  0  0  0
  1  4  1  0
  1  3  1  0
  2  6  1  0
  3  7  1  0
  5  1  1  0
  5  2  2  0
  6  7  1  0
M  END
$$$$

     RDKit          3D

 18 20  0  0  0  0  0  0  0  0999 V2000
  -17.5060  -25.4440   -9.0510 C   0  0  0  0  0  0  0  0  0  0  0  0
  -19.5660  -24.3780   -9.4140 C   0  0  0  0  0  0  0  0  0  0  0  0
  -15.7500  -24.1120   -7.8760 N   0  0  0  0  0  0  0  0  0  0  0  0
  -19.4400  -21.1210   -6.4250 C   0  0  0  0  0  0  0  0  0  0  0  0
  -18.2050  -21.7960   -6.7400 O   0  0  0  0  0  0  0  0  0  0  0  0
  -14.2590  -22.8780   -6.4900 N   0  0  0  0  0  0  0  0  0  0  0  0
  -16.6380  -26.4820   -9.1660 N   0  0  0  0  0  0  0  0  0  0  0  0
  -18.2080  -23.7460   -7.7050 C   0  0  0  0  0  0  0  0  0  0  0  0
  -16.3120  -22.8020   -4.4780 C   0  0  0  0  0  0  0  0  0  0  0  0
  -15.5140  -23.4010   -6.7210 C   0  0  0  0  0  0  0  0  0  0  0  0
  -19.3980  -23.6080   -8.3630 N   0  0  0  0  0  0  0  0  0  0  0  0
  -17.1060  -24.4020   -8.1240 C   0  0  0  0  0  0  0  0  0  0  0  0
  -14.8820  -22.6610   -4.2200 C   0  0  0  0  0  0  0  0  0  0  0  0
  -18.7810  -23.3820   -5.4450 O   0  0  0  0  0  0  0  0  0  0  0  0
  -18.6710  -25.3350   -9.6700 N   0  0  0  0  0  0  0  0  0  0  0  0
  -16.5940  -23.1890   -5.8760 C   0  0  0  0  0  0  0  0  0  0  0  0
  -18.0110  -23.1140   -6.3430 C   0  0  0  0  0  0  0  0  0  0  0  0
  -14.2010  -21.9860   -5.3460 C   0  0  0  0  0  0  0  0  0  0  0  0
  1 12  1  0
  2 11  1  0
  3 10  2  0
  5  4  1  0
  5 17  1  0
  6 18  1  0
  7  1  1  0
  8 17  1  0
  9 13  1  0
 10  6  2  0
 10 16  1  0
 11  8  2  0
 12  3  2  0
 12  8  1  0
 15  2  1  0
 15  1  2  0
 16  9  1  0
 17 16  1  0
 17 14  1  0
 18 13  1  0
M  END
$$$$

     RDKit          3D

 12 13  0  0  0  0  0  0  0  0999 V2000
  -17.1630  -23.9470   -8.1710 C   0  0  0  0  0  0  0  0  0  0  0  0
  -19.3480  -22.6020   -7.4950 C   0  0  0  0  0  0  0  0  0  0  0  0
  -20.0730  -25.0170   -9.4990 O   0  0  0  0  0  0  0  0  0  0  0  0
  -18.3350  -22.2100   -7.0150 C   0  0  0  0  0  0  0  0  0  0  0  0
  -20.7610  -21.8820   -7.3190 S   0  0  0  0  0  0  0  0  0  0  0  0
  -18.4360  -24.3020   -8.4300 C   0  0  0  0  0  0  0  0  0  0  0  0
  -19.3750  -23.5970   -8.0910 N   0  0  0  0  0  0  0  0  0  0  0  0
  -14.8640  -24.2440   -8.0180 C   0  0  0  0  0  0  0  0  0  0  0  0
  -16.0010  -24.6960   -8.5420 C   0  0  0  0  0  0  0  0  0  0  0  0
  -15.2190  -22.8660   -7.2200 S   0  0  0  0  0  0  0  0  0  0  0  0
  -16.9360  -22.8380   -7.4460 C   0  0  0  0  0  0  0  0  0  0  0  0
  -18.8050  -25.3280   -9.1650 C   0  0  0  0  0  0  0  0  0  0  0  0
  1 11  2  0
  2  5  2  0
  2  4  1  0
  3 12  1  0
  6  1  1  0
  6  7  2  0
  7  2  2  0
  8 10  1  0
  9  1  1  0
  9  8  2  0
 11 10  1  0
 11  4  1  0
 12  6  1  0
M  END
$$$$

     RDKit          3D

  7  7  0  0  0  0  0  0  0  0999 V2000
  -20.0100  -25.6310   -9.1970 O   0  0  0  0  0  0  0  0  0  0  0  0
  -17.7160  -25.4560   -8.8290 C   0  0  0  0  0  0  0  0  0  0  0  0
  -16.7180  -23.2750   -8.2910 C   0  0  0  0  0  0  0  0  0  0  0  0
  -18.9680  -24.8490   -8.8890 C   0  0  0  0  0  0  0  0  0  0  0  0
  -19.0930  -23.4580   -8.7850 C   0  0  0  0  0  0  0  0  0  0  0  0
  -16.6430  -24.6490   -8.4440 C   0  0  0  0  0  0  0  0  0  0  0  0
  -17.9200  -22.6970   -8.4370 C   0  0  0  0  0  0  0  0  0  0  0  0
  1  4  1  0
  2  6  1  0
  4  2  2  0
  4  5  1  0
  5  7  2  0
  6  3  2  0
  7  3  1  0
M  END
$$$$

     RDKit          3D

 17 20  0  0  0  0  0  0  0  0999 V2000
  -18.3650  -25.6210   -9.5780 C   0  0  0  0  0  0  0  0  0  0  0  0
  -19.2230  -20.7000   -5.3140 N   0  0  0  0  0  0  0  0  0  0  0  0
  -16.0550  -20.5680   -7.1700 C   0  0  0  0  0  0  0  0  0  0  0  0
  -17.0850  -25.5260   -9.0220 C   0  0  0  0  0  0  0  0  0  0  0  0
  -16.8200  -24.5240   -8.2110 C   0  0  0  0  0  0  0  0  0  0  0  0
  -20.4160  -20.3120   -5.9710 C   0  0  0  0  0  0  0  0  0  0  0  0
  -18.9520  -21.9020   -7.3690 C   0  0  0  0  0  0  0  0  0  0  0  0
  -17.7140  -22.4140   -7.3780 N   0  0  0  0  0  0  0  0  0  0  0  0
  -19.8310  -22.6590   -8.1020 N   0  0  0  0  0  0  0  0  0  0  0  0
  -19.2870  -20.6010   -6.7710 C   0  0  0  0  0  0  0  0  0  0  0  0
  -15.0090  -25.7030   -8.3040 N   0  0  0  0  0  0  0  0  0  0  0  0
  -15.5960  -24.6000   -7.6940 N   0  0  0  0  0  0  0  0  0  0  0  0
  -16.0270  -26.3530   -9.0300 O   0  0  0  0  0  0  0  0  0  0  0  0
  -19.0480  -23.7200   -8.5040 C   0  0  0  0  0  0  0  0  0  0  0  0
  -17.7940  -23.5220   -7.9940 C   0  0  0  0  0  0  0  0  0  0  0  0
  -16.5430  -21.8980   -6.6850 C   0  0  0  0  0  0  0  0  0  0  0  0
  -19.3070  -24.7320   -9.3020 N   0  0  0  0  0  0  0  0  0  0  0  0
  1 17  1  0
  1  4  2  0
  3 16  1  0
  4  5  1  0
  5 15  1  0
  5 12  2  0
  6  2  1  0
  8  7  1  0
  8 16  1  0
  9  7  2  0
 10  7  1  0
 10  6  1  0
 10  2  1  0
 11 12  1  0
 13  4  1  0
 13 11  1  0
 14  9  2  0
 15 14  1  0
 15  8  1  0
 17 14  2  0
M  END
$$$$

     RDKit          3D

  6  6  0  0  0  0  0  0  0  0999 V2000
  -18.9990  -24.7270   -9.0590 C   0  0  0  0  0  0  0  0  0  0  0  0
  -16.7630  -21.5870   -7.7740 Cl  0  0  0  0  0  0  0  0  0  0  0  0
  -18.8850  -23.2480   -8.6530 C   0  0  0  0  0  0  0  0  0  0  0  0
  -16.6150  -24.3280   -8.6810 C   0  0  0  0  0  0  0  0  0  0  0  0
  -17.7260  -25.3690   -8.5500 C   0  0  0  0  0  0  0  0  0  0  0  0
  -17.3760  -23.0580   -8.4400 C   0  0  0  0  0  0  0  0  0  0  0  0
  1  3  1  0
  1  5  1  0
  3  6  1  0
  4  5  1  0
  4  6  1  0
  6  2  1  0
M  END
$$$$

     RDKit          3D

 21 22  0  0  0  0  0  0  0  0999 V2000
  -17.4260  -26.3960   -9.3900 C   0  0  0  0  0  0  0  0  0  0  0  0
  -20.0510  -20.7570   -6.3630 C   0  0  0  0  0  0  0  0  0  0  0  0
  -16.7680  -21.7380   -4.5830 O   0  0  0  0  0  0  0  0  0  0  0  0
  -14.8010  -24.9770   -7.8270 S   0  0  0  0  0  0  0  0  0  0  0  0
  -20.4470  -23.2930   -8.5000 O   0  0  0  0  0  0  0  0  0  0  0  0
  -13.7060  -23.9940   -6.9770 C   0  0  0  0  0  0  0  0  0  0  0  0
  -19.4500  -23.0450   -6.4870 C   0  0  0  0  0  0  0  0  0  0  0  0
  -14.3660  -23.0860   -6.0990 C   0  0  0  0  0  0  0  0  0  0  0  0
  -17.4970  -24.1160   -7.3700 O   0  0  0  0  0  0  0  0  0  0  0  0
  -16.1330  -24.1290   -7.1510 C   0  0  0  0  0  0  0  0  0  0  0  0
  -15.8400  -23.3820   -5.9550 C   0  0  0  0  0  0  0  0  0  0  0  0
  -18.5200  -25.2550   -9.4440 C   0  0  0  0  0  0  0  0  0  0  0  0
  -20.5550  -22.1090   -6.1630 C   0  0  0  0  0  0  0  0  0  0  0  0
  -18.4670  -24.3620   -8.2710 N   0  0  0  0  0  0  0  0  0  0  0  0
  -13.8150  -22.0780   -5.5960 O   0  0  0  0  0  0  0  0  0  0  0  0
  -12.3230  -24.1490   -7.2810 C   0  0  0  0  0  0  0  0  0  0  0  0
  -19.9260  -25.4230   -9.7110 O   0  0  0  0  0  0  0  0  0  0  0  0
  -12.0800  -25.0690   -8.4270 C   0  0  0  0  0  0  0  0  0  0  0  0
  -18.3980  -23.1810   -5.4040 C   0  0  0  0  0  0  0  0  0  0  0  0
  -16.9480  -22.7580   -5.2640 C   0  0  0  0  0  0  0  0  0  0  0  0
  -19.5620  -23.5770   -7.8900 C   0  0  0  0  0  0  0  0  0  0  0  0
  2 13  1  0
  4  6  1  0
  5 21  2  0
  6 16  1  0
  6  8  1  0
  7 13  1  0
  7 19  1  0
  8 15  2  0
  9 10  1  0
 10  4  1  0
 10 11  1  0
 11  8  1  0
 11 20  1  0
 12  1  1  0
 12 14  1  0
 14 21  1  0
 14  9  1  0
 17 12  1  0
 18 16  1  0
 19 20  1  0
 20  3  2  0
 21  7  1  0
M  END
$$$$

     RDKit          3D

 18 19  0  0  0  0  0  0  0  0999 V2000
  -14.9330  -25.1770   -8.1390 C   0  0  0  0  0  0  0  0  0  0  0  0
  -18.3350  -22.8480   -7.1220 C   0  0  0  0  0  0  0  0  0  0  0  0
  -15.5760  -26.1100   -8.8800 C   0  0  0  0  0  0  0  0  0  0  0  0
  -18.9320  -21.6010   -7.0640 C   0  0  0  0  0  0  0  0  0  0  0  0
  -20.3830  -22.2700   -8.7190 O   0  0  0  0  0  0  0  0  0  0  0  0
  -17.2840  -20.6440   -5.6710 C   0  0  0  0  0  0  0  0  0  0  0  0
  -16.9050  -19.5280   -5.0060 N   0  0  0  0  0  0  0  0  0  0  0  0
  -18.2640  -20.5650   -6.5840 C   0  0  0  0  0  0  0  0  0  0  0  0
  -15.8370  -24.3110   -7.7590 C   0  0  0  0  0  0  0  0  0  0  0  0
  -18.0110  -23.0600   -5.7880 C   0  0  0  0  0  0  0  0  0  0  0  0
  -16.8930  -25.6650   -9.0450 C   0  0  0  0  0  0  0  0  0  0  0  0
  -15.5940  -19.4470   -4.3620 C   0  0  0  0  0  0  0  0  0  0  0  0
  -17.9980  -23.9680   -5.3000 O   0  0  0  0  0  0  0  0  0  0  0  0
  -19.1280  -24.3430   -9.3180 O   0  0  0  0  0  0  0  0  0  0  0  0
  -17.1470  -22.1600   -5.2440 C   0  0  0  0  0  0  0  0  0  0  0  0
  -17.0200  -24.5200   -8.3550 C   0  0  0  0  0  0  0  0  0  0  0  0
  -18.3880  -23.8550   -8.1880 C   0  0  0  0  0  0  0  0  0  0  0  0
  -20.0680  -21.4110   -7.7430 C   0  0  0  0  0  0  0  0  0  0  0  0
  1  9  1  0
  2 17  1  0
  2  4  1  0
  2 10  1  0
  3  1  2  0
  4 18  1  0
  4  8  1  0
  5 18  1  0
  6 15  1  0
  6  7  1  0
  7 12  1  0
  8  6  2  0
 10 13  2  0
 10 15  1  0
 11  3  1  0
 11 16  2  0
 16 17  1  0
 16  9  1  0
 17 14  1  0
M  END
$$$$
