
     RDKit          3D

 12 14  0  0  0  0  0  0  0  0999 V2000
   -8.6560   -7.9360   24.1890 C   0  0  0  0  0  0  0  0  0  0  0  0
   -7.5960   -6.9430   23.1500 S   0  0  0  0  0  0  0  0  0  0  0  0
   -8.6750   -8.9560   24.1510 C   0  0  0  0  0  0  0  0  0  0  0  0
   -9.5180   -6.3750   24.0840 F   0  0  0  0  0  0  0  0  0  0  0  0
   -6.2420   -8.1270   24.0180 C   0  0  0  0  0  0  0  0  0  0  0  0
   -7.3110   -8.8600   23.6130 C   0  0  0  0  0  0  0  0  0  0  0  0
   -6.7690  -10.1690   23.5890 C   0  0  0  0  0  0  0  0  0  0  0  0
   -7.5950   -8.0520   23.9200 C   0  0  0  0  0  0  0  0  0  0  0  0
   -8.9560   -7.0490   25.2030 S   0  0  0  0  0  0  0  0  0  0  0  0
   -5.6330   -8.4900   23.2370 C   0  0  0  0  0  0  0  0  0  0  0  0
   -9.8130   -8.3920   23.9670 O   0  0  0  0  0  0  0  0  0  0  0  0
   -5.8070   -9.6930   22.7860 N   0  0  0  0  0  0  0  0  0  0  0  0
  1  9  1  0
  3 11  1  0
  3  1  1  0
  4  9  1  0
  6  7  1  0
  6  8  1  0
  6  5  1  0
  8  2  1  0
  8  3  1  0
  8  1  1  0
 10  5  1  0
 11  1  1  0
 12 10  1  0
 12  7  1  0
M  END
$$$$

     RDKit          3D

  8  8  0  0  0  0  0  0  0  0999 V2000
   -7.6970   -6.1490   25.9120 C   0  0  0  0  0  0  0  0  0  0  0  0
   -7.7590   -6.3170   24.4160 C   0  0  0  0  0  0  0  0  0  0  0  0
   -6.5750   -5.3240   25.7030 N   0  0  0  0  0  0  0  0  0  0  0  0
   -6.3000   -7.2220   27.9140 C   0  0  0  0  0  0  0  0  0  0  0  0
   -6.8790   -7.2820   26.5920 C   0  0  0  0  0  0  0  0  0  0  0  0
   -6.6920   -5.0630   24.2760 C   0  0  0  0  0  0  0  0  0  0  0  0
   -6.6640   -8.1560   25.7280 O   0  0  0  0  0  0  0  0  0  0  0  0
   -5.6260   -8.1760   28.4120 O   0  0  0  0  0  0  0  0  0  0  0  0
  1  5  1  0
  2  1  1  0
  3  1  1  0
  4  8  2  0
  5  4  1  0
  6  2  1  0
  6  3  1  0
  7  5  2  0
M  END
$$$$

     RDKit          3D

 12 12  0  0  0  0  0  0  0  0999 V2000
   -5.2530   -6.2420   25.0600 O   0  0  0  0  0  0  0  0  0  0  0  0
   -6.8750   -7.4680   25.8350 C   0  0  0  0  0  0  0  0  0  0  0  0
   -8.5670   -4.6360   29.3630 C   0  0  0  0  0  0  0  0  0  0  0  0
   -6.7600   -7.2450   28.0830 C   0  0  0  0  0  0  0  0  0  0  0  0
   -8.0210   -4.8310   28.1660 C   0  0  0  0  0  0  0  0  0  0  0  0
   -6.5910   -6.5170   24.9220 C   0  0  0  0  0  0  0  0  0  0  0  0
   -7.8330   -5.3700   26.9950 C   0  0  0  0  0  0  0  0  0  0  0  0
   -8.5400   -6.1360   29.6200 C   0  0  0  0  0  0  0  0  0  0  0  0
   -7.0810   -5.8710   23.9470 N   0  0  0  0  0  0  0  0  0  0  0  0
   -8.8610   -3.6520   29.8120 O   0  0  0  0  0  0  0  0  0  0  0  0
   -7.0970   -6.4940   29.4620 C   0  0  0  0  0  0  0  0  0  0  0  0
   -7.0210   -6.5800   27.0240 N   0  0  0  0  0  0  0  0  0  0  0  0
  2 12  1  0
  3  8  1  0
  3 10  2  0
  4 11  1  0
  5  3  1  0
  6  1  2  0
  6  2  1  0
  7 12  1  0
  7  5  1  0
  9  6  1  0
 11  8  1  0
 12  4  1  0
M  END
$$$$

     RDKit          3D

 25 28  0  0  0  0  0  0  0  0999 V2000
   -5.8100   -6.1810   22.9780 C   0  0  0  0  0  0  0  0  0  0  0  0
  -11.6740   -0.8560   27.5640 C   0  0  0  0  0  0  0  0  0  0  0  0
   -8.6900   -5.7470   28.0940 C   0  0  0  0  0  0  0  0  0  0  0  0
   -5.2380  -10.8060   23.2410 C   0  0  0  0  0  0  0  0  0  0  0  0
   -5.7710   -8.5230   24.3270 N   0  0  0  0  0  0  0  0  0  0  0  0
  -10.2430   -4.0740   28.5770 C   0  0  0  0  0  0  0  0  0  0  0  0
   -7.6320   -6.1760   27.3080 C   0  0  0  0  0  0  0  0  0  0  0  0
   -6.4580   -6.2350   24.1790 C   0  0  0  0  0  0  0  0  0  0  0  0
   -6.1910   -7.3520   24.9360 C   0  0  0  0  0  0  0  0  0  0  0  0
  -11.1730   -3.0490   28.4230 C   0  0  0  0  0  0  0  0  0  0  0  0
   -5.1910   -8.4420   23.0910 C   0  0  0  0  0  0  0  0  0  0  0  0
   -4.8690   -9.5830   22.5590 O   0  0  0  0  0  0  0  0  0  0  0  0
  -12.1790   -0.4050   28.9210 C   0  0  0  0  0  0  0  0  0  0  0  0
  -11.5670   -2.7240   29.6990 C   0  0  0  0  0  0  0  0  0  0  0  0
   -6.2040   -7.3530   26.2610 N   0  0  0  0  0  0  0  0  0  0  0  0
  -11.6690   -2.2910   27.2510 C   0  0  0  0  0  0  0  0  0  0  0  0
   -7.0320   -7.1980   27.1330 N   0  0  0  0  0  0  0  0  0  0  0  0
   -9.2610   -6.4370   29.1820 C   0  0  0  0  0  0  0  0  0  0  0  0
   -5.0360   -7.1660   22.4710 C   0  0  0  0  0  0  0  0  0  0  0  0
  -11.3710   -3.7380   30.5880 O   0  0  0  0  0  0  0  0  0  0  0  0
   -3.9660   -6.9730   21.4720 C   0  0  0  0  0  0  0  0  0  0  0  0
  -10.0730   -5.7990   30.1250 C   0  0  0  0  0  0  0  0  0  0  0  0
   -9.2630   -4.5530   27.6800 C   0  0  0  0  0  0  0  0  0  0  0  0
  -11.8610   -1.3160   30.0010 C   0  0  0  0  0  0  0  0  0  0  0  0
  -10.6030   -4.6120   29.8020 C   0  0  0  0  0  0  0  0  0  0  0  0
  1  8  2  0
  2 13  1  0
  3 18  1  0
  5  9  2  0
  6 25  2  0
  7  3  1  0
  8  9  1  0
  9 15  1  0
 10 16  1  0
 10  6  1  0
 10 14  1  0
 11  5  2  0
 12 11  1  0
 12  4  1  0
 13 24  1  0
 14 24  1  0
 14 20  1  0
 15 17  1  0
 16  2  1  0
 17  7  2  3
 18 22  2  0
 19 21  1  0
 19  1  1  0
 19 11  1  0
 23  3  2  0
 23  6  1  0
 25 22  1  0
 25 20  1  0
M  END
$$$$

     RDKit          3D

  8  8  0  0  0  0  0  0  0  0999 V2000
   -8.6060   -6.5090   29.7280 C   0  0  0  0  0  0  0  0  0  0  0  0
   -8.4320   -5.5080   27.4820 N   0  0  0  0  0  0  0  0  0  0  0  0
   -7.5200   -6.5110   27.6520 C   0  0  0  0  0  0  0  0  0  0  0  0
   -9.7220   -5.8200   29.4220 C   0  0  0  0  0  0  0  0  0  0  0  0
  -10.3840   -4.1020   27.9540 O   0  0  0  0  0  0  0  0  0  0  0  0
   -7.5140   -6.7700   28.9620 C   0  0  0  0  0  0  0  0  0  0  0  0
   -9.5280   -5.2820   28.2390 C   0  0  0  0  0  0  0  0  0  0  0  0
   -6.5550   -7.0950   26.9370 O   0  0  0  0  0  0  0  0  0  0  0  0
  2  3  2  0
  2  7  2  0
  3  6  1  0
  4  1  1  0
  5  7  2  0
  6  1  2  0
  7  4  1  0
  8  3  2  0
M  END
$$$$

     RDKit          3D

 19 19  0  0  0  0  0  0  0  0999 V2000
   -5.1390   -8.2580   24.4160 C   0  0  0  0  0  0  0  0  0  0  0  0
   -5.7650   -9.4200   24.0250 O   0  0  0  0  0  0  0  0  0  0  0  0
   -5.1510  -10.3300   23.1870 C   0  0  0  0  0  0  0  0  0  0  0  0
  -10.9730   -4.9570   28.2320 O   0  0  0  0  0  0  0  0  0  0  0  0
   -7.4010   -4.4060   26.7630 C   0  0  0  0  0  0  0  0  0  0  0  0
   -4.7700  -10.6110   21.1170 C   0  0  0  0  0  0  0  0  0  0  0  0
   -6.5650   -5.6390   26.4980 C   0  0  0  0  0  0  0  0  0  0  0  0
   -8.1500   -4.3510   28.0670 C   0  0  0  0  0  0  0  0  0  0  0  0
   -5.3210   -7.3180   23.3920 O   0  0  0  0  0  0  0  0  0  0  0  0
   -5.0270   -9.4700   21.8730 O   0  0  0  0  0  0  0  0  0  0  0  0
   -5.4910   -7.9330   26.7720 O   0  0  0  0  0  0  0  0  0  0  0  0
   -6.6270   -6.3730   25.1130 C   0  0  0  0  0  0  0  0  0  0  0  0
   -3.0590  -10.5590   21.3300 C   0  0  0  0  0  0  0  0  0  0  0  0
  -10.9600   -2.9970   26.9360 O   0  0  0  0  0  0  0  0  0  0  0  0
   -7.4740   -3.3570   25.8850 O   0  0  0  0  0  0  0  0  0  0  0  0
   -9.0650   -3.2330   28.1810 O   0  0  0  0  0  0  0  0  0  0  0  0
  -10.4860   -3.5230   28.1390 P   0  0  0  0  0  0  0  0  0  0  0  0
   -6.2160   -7.7470   25.5410 C   0  0  0  0  0  0  0  0  0  0  0  0
   -5.1260  -11.5160   22.3610 C   0  0  0  0  0  0  0  0  0  0  0  0
  1  9  1  0
  1 18  1  0
  2  1  1  0
  3  2  1  0
  5 15  1  0
  5  8  1  0
  6 13  1  0
  6 10  1  0
  6 19  1  0
  7  5  1  0
  8 16  1  0
 10  3  1  0
 12 18  1  0
 12  7  1  0
 14 17  1  0
 17 16  1  0
 17  4  1  0
 18 11  1  0
 19  3  1  0
M  END
$$$$

     RDKit          3D

 14 14  0  0  0  0  0  0  0  0999 V2000
   -8.9050   -5.0780   27.6490 N   0  0  0  0  0  0  0  0  0  0  0  0
   -4.6950   -6.6120   24.4000 C   0  0  0  0  0  0  0  0  0  0  0  0
   -7.7120   -4.8400   27.1140 C   0  0  0  0  0  0  0  0  0  0  0  0
  -11.4500   -3.2130   27.4710 O   0  0  0  0  0  0  0  0  0  0  0  0
   -9.7960   -3.2060   28.4530 O   0  0  0  0  0  0  0  0  0  0  0  0
   -4.1820   -6.6050   25.6930 N   0  0  0  0  0  0  0  0  0  0  0  0
   -6.8220   -5.9500   27.3240 C   0  0  0  0  0  0  0  0  0  0  0  0
   -4.9480   -7.4840   26.4950 C   0  0  0  0  0  0  0  0  0  0  0  0
   -6.9040   -7.1180   25.1720 C   0  0  0  0  0  0  0  0  0  0  0  0
   -5.8010   -7.6510   24.3260 C   0  0  0  0  0  0  0  0  0  0  0  0
  -10.0410   -3.9820   27.6760 C   0  0  0  0  0  0  0  0  0  0  0  0
   -5.5330   -9.0750   24.7030 N   0  0  0  0  0  0  0  0  0  0  0  0
  -12.0470   -3.4670   28.5940 C   0  0  0  0  0  0  0  0  0  0  0  0
   -6.2830   -6.8370   26.5030 C   0  0  0  0  0  0  0  0  0  0  0  0
  1 11  1  0
  2  6  1  0
  3  7  1  0
  3  1  1  0
  4 11  1  0
  4 13  1  0
  6  8  1  0
  8 14  1  0
  9 14  1  0
 10  2  1  0
 10 12  1  0
 10  9  1  0
 11  5  2  0
 14  7  1  0
M  END
$$$$

     RDKit          3D

  9  9  0  0  0  0  0  0  0  0999 V2000
   -5.8500   -7.3970   25.2300 C   0  0  0  0  0  0  0  0  0  0  0  0
   -6.0950   -7.0530   26.8910 C   0  0  0  0  0  0  0  0  0  0  0  0
   -7.4300   -6.3940   27.3690 C   0  0  0  0  0  0  0  0  0  0  0  0
   -6.1890   -8.7370   24.9470 O   0  0  0  0  0  0  0  0  0  0  0  0
   -7.0000   -5.1040   25.5960 C   0  0  0  0  0  0  0  0  0  0  0  0
   -7.2460   -4.0250   26.5410 N   0  0  0  0  0  0  0  0  0  0  0  0
   -6.5050   -4.9140   24.4640 O   0  0  0  0  0  0  0  0  0  0  0  0
   -8.4960   -5.8890   28.2960 C   0  0  0  0  0  0  0  0  0  0  0  0
   -7.4960   -5.1940   26.6260 N   0  0  0  0  0  0  0  0  0  0  0  0
  1  2  1  0
  2  3  1  0
  3  8  1  0
  4  1  1  0
  5  6  2  0
  5  9  1  0
  6  9  1  0
  7  5  2  0
  9  3  1  0
M  END
$$$$

     RDKit          3D

 20 21  0  0  0  0  0  0  0  0999 V2000
   -9.8070   -3.0810   28.5520 C   0  0  0  0  0  0  0  0  0  0  0  0
  -10.0490   -5.0430   32.2250 C   0  0  0  0  0  0  0  0  0  0  0  0
   -5.4560   -6.9880   23.1710 C   0  0  0  0  0  0  0  0  0  0  0  0
   -5.8520   -8.6320   24.7320 C   0  0  0  0  0  0  0  0  0  0  0  0
   -8.0590   -3.0530   27.0840 O   0  0  0  0  0  0  0  0  0  0  0  0
  -10.5020   -3.7130   29.5650 C   0  0  0  0  0  0  0  0  0  0  0  0
   -6.7300   -6.5530   25.2330 C   0  0  0  0  0  0  0  0  0  0  0  0
   -9.0010   -3.9630   27.6670 C   0  0  0  0  0  0  0  0  0  0  0  0
   -7.4320   -5.9650   27.4380 O   0  0  0  0  0  0  0  0  0  0  0  0
   -4.4210   -9.2980   22.9950 C   0  0  0  0  0  0  0  0  0  0  0  0
  -10.9310   -5.4470   31.1690 C   0  0  0  0  0  0  0  0  0  0  0  0
   -4.2430  -10.3580   23.5280 O   0  0  0  0  0  0  0  0  0  0  0  0
   -9.2750   -5.7600   29.2930 C   0  0  0  0  0  0  0  0  0  0  0  0
   -5.2080   -8.3330   23.6300 C   0  0  0  0  0  0  0  0  0  0  0  0
   -3.7770   -9.2460   21.8470 N   0  0  0  0  0  0  0  0  0  0  0  0
  -10.2370   -5.0560   29.8790 C   0  0  0  0  0  0  0  0  0  0  0  0
   -8.1730   -5.1500   28.3570 C   0  0  0  0  0  0  0  0  0  0  0  0
   -6.5730   -7.8120   25.5050 N   0  0  0  0  0  0  0  0  0  0  0  0
   -6.2190   -6.1490   23.9650 C   0  0  0  0  0  0  0  0  0  0  0  0
   -7.4220   -5.6720   26.0820 N   0  0  0  0  0  0  0  0  0  0  0  0
  1  6  1  0
  3 14  1  0
  3 19  2  0
  4 18  1  0
  6 16  2  0
  7 18  2  0
  7 20  1  0
  8  5  1  0
  8 17  1  0
  8  1  1  0
 10 12  2  0
 10 14  1  0
 11  2  1  0
 13 16  1  0
 14  4  2  0
 15 10  1  0
 16 11  1  0
 17  9  1  0
 17 13  1  0
 19  7  1  0
 20  9  1  0
M  END
$$$$

     RDKit          3D

 10 14  0  0  0  0  0  0  0  0999 V2000
   -9.5680   -6.0680   25.4880 C   0  0  0  0  0  0  0  0  0  0  0  0
   -6.0150   -6.9270   26.8150 C   0  0  0  0  0  0  0  0  0  0  0  0
   -9.7980   -5.9170   23.9720 O   0  0  0  0  0  0  0  0  0  0  0  0
   -9.3770   -7.8110   25.6330 C   0  0  0  0  0  0  0  0  0  0  0  0
   -6.3300   -8.1430   24.7440 C   0  0  0  0  0  0  0  0  0  0  0  0
   -7.2430   -7.9570   26.9550 C   0  0  0  0  0  0  0  0  0  0  0  0
   -6.1780   -8.2980   26.2590 C   0  0  0  0  0  0  0  0  0  0  0  0
   -8.2350   -7.1450   26.0560 C   0  0  0  0  0  0  0  0  0  0  0  0
  -10.2990   -7.1970   24.8570 C   0  0  0  0  0  0  0  0  0  0  0  0
   -7.4450   -7.3000   25.1040 C   0  0  0  0  0  0  0  0  0  0  0  0
  1  3  1  0
  1  4  1  0
  1  8  1  0
  2  6  1  0
  3  9  1  0
  4  8  1  0
  5 10  1  0
  5  7  1  0
  7  2  1  0
  7  6  1  0
  8  6  1  0
  9  1  1  0
  9  4  1  0
 10  8  1  0
M  END
$$$$

     RDKit          3D

 23 26  0  0  0  0  0  0  0  0999 V2000
   -5.4770   -9.9450   21.7430 C   0  0  0  0  0  0  0  0  0  0  0  0
   -7.2320   -7.0810   26.5230 C   0  0  0  0  0  0  0  0  0  0  0  0
   -7.2220   -6.5290   24.2510 C   0  0  0  0  0  0  0  0  0  0  0  0
   -6.7800   -9.0370   24.9650 C   0  0  0  0  0  0  0  0  0  0  0  0
  -11.9540   -4.3880   28.3500 C   0  0  0  0  0  0  0  0  0  0  0  0
   -6.6320   -6.5290   25.3560 C   0  0  0  0  0  0  0  0  0  0  0  0
  -12.5660   -2.2560   28.8010 N   0  0  0  0  0  0  0  0  0  0  0  0
  -11.1490   -5.6110   28.6040 C   0  0  0  0  0  0  0  0  0  0  0  0
  -12.5900   -4.2060   27.2130 N   0  0  0  0  0  0  0  0  0  0  0  0
  -13.0750   -2.9420   27.2890 C   0  0  0  0  0  0  0  0  0  0  0  0
   -5.6400   -7.3990   21.6560 O   0  0  0  0  0  0  0  0  0  0  0  0
   -5.2010  -10.9690   22.3870 C   0  0  0  0  0  0  0  0  0  0  0  0
  -11.8550   -3.2060   29.1480 C   0  0  0  0  0  0  0  0  0  0  0  0
   -6.6740   -8.6350   23.3590 N   0  0  0  0  0  0  0  0  0  0  0  0
   -6.9990   -5.8640   26.5090 C   0  0  0  0  0  0  0  0  0  0  0  0
   -8.5490   -7.5470   27.1070 C   0  0  0  0  0  0  0  0  0  0  0  0
   -6.7030   -9.8860   24.0990 C   0  0  0  0  0  0  0  0  0  0  0  0
  -13.9590   -2.3210   26.1560 C   0  0  0  0  0  0  0  0  0  0  0  0
   -8.9020   -6.4950   28.1810 C   0  0  0  0  0  0  0  0  0  0  0  0
   -7.5220   -7.5430   23.3400 C   0  0  0  0  0  0  0  0  0  0  0  0
   -5.8610   -8.5530   22.1430 C   0  0  0  0  0  0  0  0  0  0  0  0
   -6.6260  -11.1660   23.4370 C   0  0  0  0  0  0  0  0  0  0  0  0
  -10.1330   -5.8350   27.6600 O   0  0  0  0  0  0  0  0  0  0  0  0
  1 21  1  0
  1 12  1  0
  2 16  1  0
  5  8  1  0
  5 13  1  0
  6  3  1  0
  6 15  1  0
  6  2  1  0
  7 13  1  0
  9 10  2  0
  9  5  2  0
 10  7  2  0
 11 21  2  0
 12 22  1  0
 14 17  1  0
 14  4  1  0
 15  2  1  0
 16 19  1  0
 17 22  1  0
 17  4  1  0
 18 10  1  0
 20 14  1  0
 20  3  1  0
 21 14  1  0
 23 19  1  0
 23  8  1  0
M  END
$$$$

     RDKit          3D

  8  8  0  0  0  0  0  0  0  0999 V2000
   -6.3290   -5.4470   26.3840 O   0  0  0  0  0  0  0  0  0  0  0  0
   -5.7220   -6.2490   27.3090 C   0  0  0  0  0  0  0  0  0  0  0  0
   -6.4030   -6.1180   28.6290 C   0  0  0  0  0  0  0  0  0  0  0  0
   -7.5420   -6.7750   28.5190 O   0  0  0  0  0  0  0  0  0  0  0  0
   -6.9330   -4.6990   28.9580 C   0  0  0  0  0  0  0  0  0  0  0  0
   -8.6500   -5.9630   28.7770 C   0  0  0  0  0  0  0  0  0  0  0  0
   -8.1720   -4.8150   29.3450 C   0  0  0  0  0  0  0  0  0  0  0  0
   -7.2280   -4.5420   26.7110 O   0  0  0  0  0  0  0  0  0  0  0  0
  1  8  1  0
  1  2  1  0
  3  2  1  0
  3  5  1  0
  4  3  1  0
  4  6  1  0
  5  7  1  0
  6  7  1  0
M  END
$$$$

     RDKit          3D

  6  5  0  0  0  0  0  0  0  0999 V2000
   -5.8930   -6.7780   27.6500 O   0  0  0  0  0  0  0  0  0  0  0  0
   -7.8790   -6.1500   26.9920 O   0  0  0  0  0  0  0  0  0  0  0  0
   -6.5170   -7.4610   25.3930 C   0  0  0  0  0  0  0  0  0  0  0  0
   -6.7390   -6.6670   26.5990 C   0  0  0  0  0  0  0  0  0  0  0  0
   -5.2370   -7.6560   22.9240 C   0  0  0  0  0  0  0  0  0  0  0  0
   -5.8610   -7.2410   24.2290 C   0  0  0  0  0  0  0  0  0  0  0  0
  3  4  1  0
  4  2  2  0
  4  1  1  0
  5  6  1  0
  6  3  2  3
M  END
$$$$

     RDKit          3D

 11 11  0  0  0  0  0  0  0  0999 V2000
   -4.4530   -9.0130   24.5650 C   0  0  0  0  0  0  0  0  0  0  0  0
   -8.5480   -5.8790   24.8070 C   0  0  0  0  0  0  0  0  0  0  0  0
   -6.5010   -8.3730   24.6150 C   0  0  0  0  0  0  0  0  0  0  0  0
   -5.3700   -6.4960   23.1640 O   0  0  0  0  0  0  0  0  0  0  0  0
   -8.7920   -5.4890   27.1430 C   0  0  0  0  0  0  0  0  0  0  0  0
   -8.6250   -4.0440   26.9470 C   0  0  0  0  0  0  0  0  0  0  0  0
   -7.6010   -5.9970   23.9930 N   0  0  0  0  0  0  0  0  0  0  0  0
   -8.3230   -6.1770   26.0330 O   0  0  0  0  0  0  0  0  0  0  0  0
   -6.6420   -7.0830   23.6250 C   0  0  0  0  0  0  0  0  0  0  0  0
   -9.5030   -4.7110   27.8360 C   0  0  0  0  0  0  0  0  0  0  0  0
   -5.3310   -8.3550   25.4310 N   0  0  0  0  0  0  0  0  0  0  0  0
  1 11  1  0
  2  8  1  0
  3 11  1  0
  5 10  1  0
  6  5  1  0
  6 10  1  0
  7  2  1  0
  8  5  1  0
  9  4  1  0
  9  7  1  0
  9  3  1  0
M  END
$$$$

     RDKit          3D

 11 14  0  0  0  0  0  0  0  0999 V2000
   -6.9760   -8.0810   25.3960 C   0  0  0  0  0  0  0  0  0  0  0  0
   -8.6960   -7.8340   27.1380 C   0  0  0  0  0  0  0  0  0  0  0  0
   -7.3850   -5.7680   24.2590 C   0  0  0  0  0  0  0  0  0  0  0  0
   -8.2080   -4.7760   25.1440 C   0  0  0  0  0  0  0  0  0  0  0  0
   -6.8490   -6.1310   26.7320 C   0  0  0  0  0  0  0  0  0  0  0  0
   -7.7280   -7.2170   24.5170 C   0  0  0  0  0  0  0  0  0  0  0  0
   -8.0750   -5.1520   26.5600 C   0  0  0  0  0  0  0  0  0  0  0  0
   -6.4480   -7.6220   26.7380 C   0  0  0  0  0  0  0  0  0  0  0  0
   -8.5060   -7.9120   25.6270 C   0  0  0  0  0  0  0  0  0  0  0  0
   -7.4070   -7.1270   27.6050 C   0  0  0  0  0  0  0  0  0  0  0  0
   -7.4660   -8.2020   23.2830 C   0  0  0  0  0  0  0  0  0  0  0  0
  1  9  1  0
  1  8  1  0
  2 10  1  0
  3  6  1  0
  3  4  1  0
  4  7  1  0
  5  8  1  0
  5 10  1  0
  6  1  1  0
  6  9  1  0
  7  5  1  0
  8 10  1  0
  9  2  1  0
 11  6  1  0
M  END
$$$$

     RDKit          3D

 10  9  0  0  0  0  0  0  0  0999 V2000
   -8.2090   -4.9950   29.2570 O   0  0  0  0  0  0  0  0  0  0  0  0
   -7.9370   -7.2250   28.8370 O   0  0  0  0  0  0  0  0  0  0  0  0
   -5.7630   -7.5750   24.3810 O   0  0  0  0  0  0  0  0  0  0  0  0
   -7.4680   -6.0510   24.1400 O   0  0  0  0  0  0  0  0  0  0  0  0
   -8.2940   -5.9270   28.3440 P   0  0  0  0  0  0  0  0  0  0  0  0
   -6.2250   -6.3630   26.4550 C   0  0  0  0  0  0  0  0  0  0  0  0
   -9.8120   -5.6570   28.0590 O   0  0  0  0  0  0  0  0  0  0  0  0
   -6.4500   -6.6360   24.9180 C   0  0  0  0  0  0  0  0  0  0  0  0
   -7.1070   -6.0370   27.0010 C   0  0  0  0  0  0  0  0  0  0  0  0
   -7.5980   -5.0880   26.4160 O   0  0  0  0  0  0  0  0  0  0  0  0
  3  8  1  0
  4  8  2  0
  5  2  1  0
  5  1  1  0
  6  9  1  0
  7  5  2  0
  8  6  1  0
  9  5  1  0
 10  9  2  0
M  END
$$$$

     RDKit          3D

 13 13  0  0  0  0  0  0  0  0999 V2000
   -9.3390   -3.1790   27.8460 C   0  0  0  0  0  0  0  0  0  0  0  0
   -5.6770  -10.0710   23.2170 O   0  0  0  0  0  0  0  0  0  0  0  0
   -7.0690   -5.7430   25.8580 C   0  0  0  0  0  0  0  0  0  0  0  0
   -5.3570   -9.8170   24.1950 C   0  0  0  0  0  0  0  0  0  0  0  0
   -5.3100   -8.1950   24.0850 C   0  0  0  0  0  0  0  0  0  0  0  0
   -6.2110   -7.7610   24.9510 N   0  0  0  0  0  0  0  0  0  0  0  0
   -8.2510   -5.5230   27.8900 C   0  0  0  0  0  0  0  0  0  0  0  0
  -10.7750   -3.1180   27.8510 C   0  0  0  0  0  0  0  0  0  0  0  0
   -6.8620   -6.4810   24.5760 C   0  0  0  0  0  0  0  0  0  0  0  0
  -10.5680   -4.6240   28.0920 N   0  0  0  0  0  0  0  0  0  0  0  0
   -9.1110   -4.3800   28.2380 C   0  0  0  0  0  0  0  0  0  0  0  0
   -5.0790  -10.4960   24.9930 O   0  0  0  0  0  0  0  0  0  0  0  0
   -8.0130   -6.2190   26.6050 O   0  0  0  0  0  0  0  0  0  0  0  0
  1  8  1  0
  1 11  1  0
  2  4  2  0
  3 13  1  0
  4 12  1  0
  5  4  1  0
  5  6  1  0
  8 10  1  0
  9  6  1  0
  9  3  1  0
 10 11  1  0
 11  7  1  0
 13  7  1  0
M  END
$$$$

     RDKit          3D

  9  9  0  0  0  0  0  0  0  0999 V2000
   -4.9440   -7.0260   23.4810 S   0  0  0  0  0  0  0  0  0  0  0  0
   -4.7710   -7.0600   25.1040 C   0  0  0  0  0  0  0  0  0  0  0  0
   -5.3250   -8.7220   23.2580 C   0  0  0  0  0  0  0  0  0  0  0  0
   -6.7950   -5.9670   26.2210 C   0  0  0  0  0  0  0  0  0  0  0  0
   -5.9980   -7.2130   25.9230 C   0  0  0  0  0  0  0  0  0  0  0  0
   -5.0200   -9.3080   24.5450 C   0  0  0  0  0  0  0  0  0  0  0  0
   -4.1270   -8.4750   25.3210 O   0  0  0  0  0  0  0  0  0  0  0  0
   -7.5000   -5.6310   25.1760 O   0  0  0  0  0  0  0  0  0  0  0  0
   -5.7090   -8.0430   27.0270 O   0  0  0  0  0  0  0  0  0  0  0  0
  1  2  1  0
  2  7  1  0
  2  5  1  0
  3  1  1  0
  3  6  1  0
  5  4  1  0
  5  9  1  0
  6  7  1  0
  8  4  1  0
M  END
$$$$

     RDKit          3D

 16 18  0  0  0  0  0  0  0  0999 V2000
   -6.9310   -7.7040   25.1210 C   0  0  0  0  0  0  0  0  0  0  0  0
   -8.4870   -8.8210   24.6050 S   0  0  0  0  0  0  0  0  0  0  0  0
   -8.9390   -7.1530   25.1820 C   0  0  0  0  0  0  0  0  0  0  0  0
  -10.5890   -5.8030   26.9570 S   0  0  0  0  0  0  0  0  0  0  0  0
  -10.0760   -7.1820   26.2660 C   0  0  0  0  0  0  0  0  0  0  0  0
   -9.0540   -6.9870   28.0700 C   0  0  0  0  0  0  0  0  0  0  0  0
  -10.0850   -7.0620   27.0840 C   0  0  0  0  0  0  0  0  0  0  0  0
   -7.8570   -7.4500   25.0230 C   0  0  0  0  0  0  0  0  0  0  0  0
  -10.1090   -7.5030   25.6950 C   0  0  0  0  0  0  0  0  0  0  0  0
   -8.6380   -7.4940   25.0680 C   0  0  0  0  0  0  0  0  0  0  0  0
   -9.5670   -7.7040   25.1670 C   0  0  0  0  0  0  0  0  0  0  0  0
   -7.0920   -9.7430   23.9590 C   0  0  0  0  0  0  0  0  0  0  0  0
   -8.3680   -6.3500   23.8280 S   0  0  0  0  0  0  0  0  0  0  0  0
   -7.2150   -7.0790   25.8370 C   0  0  0  0  0  0  0  0  0  0  0  0
   -6.9040   -8.8190   24.4280 C   0  0  0  0  0  0  0  0  0  0  0  0
  -10.7190   -6.5420   26.3340 C   0  0  0  0  0  0  0  0  0  0  0  0
  1 15  1  0
  1 14  1  0
  2 10  2  0
  4  7  1  0
  5  9  1  0
  5 16  1  0
  5  7  1  0
  7  6  1  0
  8 13  1  0
  8 10  1  0
  8  1  1  0
  8 14  1  0
 10  3  1  0
 11  3  1  0
 11  9  1  0
 12 15  3  0
 16  4  1  0
 16  7  1  0
M  END
$$$$

     RDKit          3D

 12 13  0  0  0  0  0  0  0  0999 V2000
   -7.7730   -6.9310   27.5410 C   0  0  0  0  0  0  0  0  0  0  0  0
   -5.3170   -7.3670   23.1140 C   0  0  0  0  0  0  0  0  0  0  0  0
   -5.7600   -8.3750   23.9290 C   0  0  0  0  0  0  0  0  0  0  0  0
   -6.5600   -5.7650   24.3310 C   0  0  0  0  0  0  0  0  0  0  0  0
   -7.8350   -6.4750   26.3230 C   0  0  0  0  0  0  0  0  0  0  0  0
   -9.7180   -5.7920   28.1950 C   0  0  0  0  0  0  0  0  0  0  0  0
   -6.9660   -6.7590   25.2000 C   0  0  0  0  0  0  0  0  0  0  0  0
   -6.5600   -8.0210   24.9810 C   0  0  0  0  0  0  0  0  0  0  0  0
   -9.7030   -5.1790   26.9610 C   0  0  0  0  0  0  0  0  0  0  0  0
   -8.7450   -6.7240   28.5320 C   0  0  0  0  0  0  0  0  0  0  0  0
   -5.7520   -6.1450   23.2430 C   0  0  0  0  0  0  0  0  0  0  0  0
   -8.9060   -5.6210   25.9990 C   0  0  0  0  0  0  0  0  0  0  0  0
  1 10  1  0
  2 11  2  0
  2  3  1  0
  3  8  2  0
  4  7  2  0
  5  1  2  0
  6 10  2  0
  7  5  1  0
  8  7  1  0
  9  6  1  0
 11  4  1  0
 12  5  1  0
 12  9  2  0
M  END
$$$$
