
     RDKit          3D

 42 44  0  0  0  0  0  0  0  0999 V2000
    5.9220   33.5330   30.1240 C   0  0  0  0  0  0  0  0  0  0  0  0
    6.8190   32.3310   29.8960 C   0  0  0  0  0  0  0  0  0  0  0  0
    9.6490   40.6770   21.8230 O   0  0  0  0  0  0  0  0  0  0  0  0
    7.6950   41.3220   28.7180 C   0  0  0  0  0  0  0  0  0  0  0  0
    7.1860   39.6390   22.6620 O   0  0  0  0  0  0  0  0  0  0  0  0
    8.8930   40.1090   27.0040 C   0  0  0  0  0  0  0  0  0  0  0  0
    1.8580   42.9990   21.1920 C   0  0  0  0  0  0  0  0  0  0  0  0
    6.3270   36.5520   30.6330 C   0  0  0  0  0  0  0  0  0  0  0  0
    6.4340   38.7590   21.8150 C   0  0  0  0  0  0  0  0  0  0  0  0
    6.3550   36.4500   21.6560 O   0  0  0  0  0  0  0  0  0  0  0  0
    6.9320   39.7180   31.4720 O   0  0  0  0  0  0  0  0  0  0  0  0
    8.4440   42.9410   31.0030 C   0  0  0  0  0  0  0  0  0  0  0  0
    9.3730   39.9970   25.5260 C   0  0  0  0  0  0  0  0  0  0  0  0
    9.5190   39.1810   27.9230 C   0  0  0  0  0  0  0  0  0  0  0  0
    7.5850   37.4370   30.7240 C   0  0  0  0  0  0  0  0  0  0  0  0
    8.6330   41.2850   27.7500 C   0  0  0  0  0  0  0  0  0  0  0  0
    9.3180   39.4100   22.1990 C   0  0  0  0  0  0  0  0  0  0  0  0
    5.6310   40.4000   19.9300 S   0  0  0  0  0  0  0  0  0  0  0  0
    8.7030   37.9100   28.4030 C   0  0  0  0  0  0  0  0  0  0  0  0
    7.1750   41.0940   32.0710 C   0  0  0  0  0  0  0  0  0  0  0  0
    5.3180   39.1380   21.3180 C   0  0  0  0  0  0  0  0  0  0  0  0
    9.0620   39.3010   32.0900 O   0  0  0  0  0  0  0  0  0  0  0  0
    6.8650   37.4240   21.1830 C   0  0  0  0  0  0  0  0  0  0  0  0
    6.9690   35.0460   29.7490 S   0  0  0  0  0  0  0  0  0  0  0  0
    2.1270   40.3570   22.4810 C   0  0  0  0  0  0  0  0  0  0  0  0
    7.7770   42.8840   33.9690 O   0  0  0  0  0  0  0  0  0  0  0  0
    7.5380   37.4230   20.2100 O   0  0  0  0  0  0  0  0  0  0  0  0
    2.4750   40.5450   21.1730 O   0  0  0  0  0  0  0  0  0  0  0  0
    4.6300   33.4070   29.3780 C   0  0  0  0  0  0  0  0  0  0  0  0
    6.8120   43.8680   33.3600 C   0  0  0  0  0  0  0  0  0  0  0  0
    7.7290   38.8110   31.8940 P   0  0  0  0  0  0  0  0  0  0  0  0
    8.6730   40.3130   24.4660 C   0  0  0  0  0  0  0  0  0  0  0  0
    7.4350   41.7370   30.3560 C   0  0  0  0  0  0  0  0  0  0  0  0
    8.4060   43.1920   32.8480 C   0  0  0  0  0  0  0  0  0  0  0  0
    2.8210   41.8770   21.1130 C   0  0  0  0  0  0  0  0  0  0  0  0
    5.7110   43.1410   32.6710 C   0  0  0  0  0  0  0  0  0  0  0  0
    8.4200   39.4980   23.3480 C   0  0  0  0  0  0  0  0  0  0  0  0
    7.6160   38.1800   29.1500 C   0  0  0  0  0  0  0  0  0  0  0  0
    7.3130   38.2900   33.2020 O   0  0  0  0  0  0  0  0  0  0  0  0
    4.3690   41.5460   20.5260 C   0  0  0  0  0  0  0  0  0  0  0  0
    9.6690   43.3820   30.4330 C   0  0  0  0  0  0  0  0  0  0  0  0
    5.9110   41.6330   32.5050 C   0  0  0  0  0  0  0  0  0  0  0  0
  2  1  1  0
  3 17  1  0
  5 37  1  0
  6 13  1  0
  6 16  1  0
  6 14  1  0
  9 21  1  0
  9  5  1  0
 11 31  1  0
 11 20  1  0
 12 41  1  0
 12 34  1  0
 14 19  1  0
 15  8  1  0
 15 31  1  0
 16  4  1  0
 18 40  1  0
 18 21  1  0
 19 38  1  0
 20 42  1  0
 23 10  1  0
 23  9  1  0
 24  1  1  0
 24  8  1  0
 27 23  2  0
 28 25  1  0
 29  1  1  0
 30 36  1  0
 30 26  1  0
 31 22  2  0
 31 39  1  0
 32 13  1  0
 33  4  1  0
 33 12  1  0
 33 20  1  0
 34 30  1  0
 34 26  1  0
 35 28  1  0
 35  7  1  0
 37 17  1  0
 37 32  1  0
 38 15  1  0
 40 35  1  0
 42 36  1  0
M  END
$$$$

     RDKit          3D

 10 10  0  0  0  0  0  0  0  0999 V2000
    8.7360   38.0870   28.8380 C   0  0  0  0  0  0  0  0  0  0  0  0
    7.3530   39.6960   31.9130 C   0  0  0  0  0  0  0  0  0  0  0  0
    8.7430   40.6890   30.1510 C   0  0  0  0  0  0  0  0  0  0  0  0
    8.0110   39.4350   33.0420 O   0  0  0  0  0  0  0  0  0  0  0  0
    9.0150   40.4920   28.8740 C   0  0  0  0  0  0  0  0  0  0  0  0
    8.3220   38.2340   30.1230 C   0  0  0  0  0  0  0  0  0  0  0  0
    8.0280   39.3320   30.7870 C   0  0  0  0  0  0  0  0  0  0  0  0
    9.1780   39.1830   28.0890 C   0  0  0  0  0  0  0  0  0  0  0  0
    9.2740   41.6040   28.0130 N   0  0  0  0  0  0  0  0  0  0  0  0
    6.1180   40.3800   32.1970 O   0  0  0  0  0  0  0  0  0  0  0  0
  1  6  2  0
  2 10  2  0
  2  4  1  0
  3  7  1  0
  5  9  1  0
  5  3  1  0
  6  7  1  0
  7  2  1  0
  8  1  1  0
  8  5  1  0
M  END
$$$$

     RDKit          3D

 10 13  0  0  0  0  0  0  0  0999 V2000
    8.1120   39.6730   31.5320 C   0  0  0  0  0  0  0  0  0  0  0  0
    9.1660   38.7400   29.4930 C   0  0  0  0  0  0  0  0  0  0  0  0
    7.3280   39.8250   30.2090 C   0  0  0  0  0  0  0  0  0  0  0  0
    8.9070   41.5220   28.8650 C   0  0  0  0  0  0  0  0  0  0  0  0
    8.5430   41.2000   31.0950 N   0  0  0  0  0  0  0  0  0  0  0  0
    7.8190   39.2790   28.9080 C   0  0  0  0  0  0  0  0  0  0  0  0
    7.8670   41.5690   30.0010 C   0  0  0  0  0  0  0  0  0  0  0  0
    9.8120   37.5120   28.3840 S   0  0  0  0  0  0  0  0  0  0  0  0
    9.0300   39.9900   28.5680 N   0  0  0  0  0  0  0  0  0  0  0  0
    9.3490   38.5010   30.8390 C   0  0  0  0  0  0  0  0  0  0  0  0
  1 10  1  0
  2  8  1  0
  2 10  1  0
  3  1  1  0
  4  7  1  0
  5  1  1  0
  6  2  1  0
  6  3  1  0
  7  3  1  0
  7  5  1  0
  9  4  1  0
  9  6  1  0
  9  2  1  0
M  END
$$$$

     RDKit          3D

 68 73  0  0  0  0  0  0  0  0999 V2000
    7.5640   34.6550   29.7700 C   0  0  0  0  0  0  0  0  0  0  0  0
    4.4660   35.3590   21.2250 C   0  0  0  0  0  0  0  0  0  0  0  0
    8.8410   29.7700   27.5890 O   0  0  0  0  0  0  0  0  0  0  0  0
    8.5260   36.4950   29.1050 C   0  0  0  0  0  0  0  0  0  0  0  0
    9.6470   38.8300   23.2330 O   0  0  0  0  0  0  0  0  0  0  0  0
    9.2260   41.8400   23.9990 C   0  0  0  0  0  0  0  0  0  0  0  0
   11.7830   43.1090   22.9480 C   0  0  0  0  0  0  0  0  0  0  0  0
   10.0930   38.4730   25.7070 O   0  0  0  0  0  0  0  0  0  0  0  0
    2.4840   43.3240   37.1550 O   0  0  0  0  0  0  0  0  0  0  0  0
    6.8670   32.5490   30.4300 N   0  0  0  0  0  0  0  0  0  0  0  0
   -0.5980   44.9670   33.2910 O   0  0  0  0  0  0  0  0  0  0  0  0
    4.7300   43.0090   35.6290 C   0  0  0  0  0  0  0  0  0  0  0  0
    3.3380   42.7940   36.2150 C   0  0  0  0  0  0  0  0  0  0  0  0
    4.7070   42.1750   34.2460 C   0  0  0  0  0  0  0  0  0  0  0  0
    6.6190   36.5380   21.6760 C   0  0  0  0  0  0  0  0  0  0  0  0
    8.3580   32.5760   28.5570 C   0  0  0  0  0  0  0  0  0  0  0  0
    7.9800   40.0150   28.4890 C   0  0  0  0  0  0  0  0  0  0  0  0
    5.9080   35.5060   21.2470 C   0  0  0  0  0  0  0  0  0  0  0  0
    7.3400   37.5610   28.8290 C   0  0  0  0  0  0  0  0  0  0  0  0
    6.0940   42.0850   33.5530 C   0  0  0  0  0  0  0  0  0  0  0  0
    1.5950   44.6170   35.4830 O   0  0  0  0  0  0  0  0  0  0  0  0
    9.7080   39.2480   24.5060 C   0  0  0  0  0  0  0  0  0  0  0  0
    7.4900   31.8240   29.4170 C   0  0  0  0  0  0  0  0  0  0  0  0
   11.5310   45.6320   19.0810 C   0  0  0  0  0  0  0  0  0  0  0  0
   10.4350   31.7040   27.0360 O   0  0  0  0  0  0  0  0  0  0  0  0
    3.1040   40.7550   36.8620 O   0  0  0  0  0  0  0  0  0  0  0  0
   10.7380   42.4020   22.0710 C   0  0  0  0  0  0  0  0  0  0  0  0
    8.0010   38.5520   31.8140 O   0  0  0  0  0  0  0  0  0  0  0  0
    9.4510   35.2730   28.2320 S   0  0  0  0  0  0  0  0  0  0  0  0
    7.1370   41.7310   34.4780 O   0  0  0  0  0  0  0  0  0  0  0  0
    8.6010   40.8420   26.0350 C   0  0  0  0  0  0  0  0  0  0  0  0
    7.3680   30.6760   29.3730 O   0  0  0  0  0  0  0  0  0  0  0  0
    9.1550   42.4540   22.5890 S   0  0  0  0  0  0  0  0  0  0  0  0
    0.2250   40.5840   34.5750 O   0  0  0  0  0  0  0  0  0  0  0  0
   -2.8250   44.8130   34.4940 O   0  0  0  0  0  0  0  0  0  0  0  0
    6.8530   40.7450   31.1720 N   0  0  0  0  0  0  0  0  0  0  0  0
    1.2610   43.6680   36.5170 C   0  0  0  0  0  0  0  0  0  0  0  0
    7.9170   39.0380   29.3350 C   0  0  0  0  0  0  0  0  0  0  0  0
    9.0490   40.7040   24.6730 C   0  0  0  0  0  0  0  0  0  0  0  0
   -0.8730   42.9430   34.9260 C   0  0  0  0  0  0  0  0  0  0  0  0
    9.5360   31.2140   28.0940 S   0  0  0  0  0  0  0  0  0  0  0  0
   -1.7510   42.4030   34.0330 O   0  0  0  0  0  0  0  0  0  0  0  0
    7.5540   39.4670   30.8790 C   0  0  0  0  0  0  0  0  0  0  0  0
    8.1400   36.4110   21.6280 C   0  0  0  0  0  0  0  0  0  0  0  0
   -0.8400   45.6040   35.7630 O   0  0  0  0  0  0  0  0  0  0  0  0
   10.0780   42.6650   24.7370 C   0  0  0  0  0  0  0  0  0  0  0  0
    1.0980   42.1900   36.2030 C   0  0  0  0  0  0  0  0  0  0  0  0
    8.5530   34.0790   28.6870 C   0  0  0  0  0  0  0  0  0  0  0  0
    2.4490   41.6590   36.0150 C   0  0  0  0  0  0  0  0  0  0  0  0
    0.3120   41.9990   34.8900 C   0  0  0  0  0  0  0  0  0  0  0  0
   11.1580   44.4500   19.7500 C   0  0  0  0  0  0  0  0  0  0  0  0
    7.6720   36.1540   30.2000 C   0  0  0  0  0  0  0  0  0  0  0  0
   10.1250   30.8260   29.4140 O   0  0  0  0  0  0  0  0  0  0  0  0
   -1.2900   44.7620   34.5620 P   0  0  0  0  0  0  0  0  0  0  0  0
    8.5790   37.7900   21.7830 C   0  0  0  0  0  0  0  0  0  0  0  0
   10.0030   38.8860   26.9060 C   0  0  0  0  0  0  0  0  0  0  0  0
   11.3290   42.8430   24.4120 C   0  0  0  0  0  0  0  0  0  0  0  0
    5.8930   31.9080   31.3430 C   0  0  0  0  0  0  0  0  0  0  0  0
    6.6490   40.5170   28.1100 C   0  0  0  0  0  0  0  0  0  0  0  0
    6.1760   40.7200   32.4820 C   0  0  0  0  0  0  0  0  0  0  0  0
    6.3550   41.3560   29.5060 C   0  0  0  0  0  0  0  0  0  0  0  0
   10.6880   43.8110   20.9020 C   0  0  0  0  0  0  0  0  0  0  0  0
    9.4090   28.7240   28.3600 C   0  0  0  0  0  0  0  0  0  0  0  0
    9.6810   37.7110   22.7480 C   0  0  0  0  0  0  0  0  0  0  0  0
    8.8620   39.5040   27.1340 C   0  0  0  0  0  0  0  0  0  0  0  0
    4.1200   34.1060   22.0820 C   0  0  0  0  0  0  0  0  0  0  0  0
   12.9540   45.0810   18.6750 O   0  0  0  0  0  0  0  0  0  0  0  0
    6.4650   33.9670   30.4910 C   0  0  0  0  0  0  0  0  0  0  0  0
  1 52  1  0
  1 68  1  0
  2 18  1  0
  2 66  1  0
  3 41  1  0
  3 63  1  0
  4 19  1  0
  4 52  1  0
  6 39  1  0
  6 46  1  0
  7 57  1  0
  8 56  1  0
 10 68  1  0
 10 58  1  0
 11 54  2  0
 13 12  1  0
 13  9  1  0
 14 12  1  0
 16 41  1  0
 16 48  1  0
 16 23  1  0
 17 59  1  0
 17 38  1  0
 18 15  2  3
 20 14  1  0
 20 30  1  0
 22  5  1  0
 22 39  1  0
 22  8  1  0
 23 10  1  0
 24 51  1  0
 25 41  1  0
 27 62  1  0
 27 33  1  0
 27  7  1  0
 29 48  1  0
 29  4  1  0
 32 23  2  0
 33  6  1  0
 35 54  1  0
 36 60  1  0
 37 21  1  0
 37  9  1  0
 38 19  1  0
 38 43  1  0
 39 31  1  0
 40 42  1  0
 41 53  1  0
 43 36  1  0
 43 28  2  0
 44 15  1  0
 44 55  1  0
 47 50  1  0
 47 37  1  0
 48  1  2  0
 49 47  1  0
 49 13  1  0
 49 26  1  0
 50 34  1  0
 50 40  1  0
 51 62  1  0
 54 40  1  0
 54 45  1  0
 55 64  1  0
 56 65  1  0
 57 46  1  0
 59 61  1  0
 60 20  1  0
 61 36  1  0
 64  5  1  0
 65 31  1  0
 65 17  1  0
 67 24  1  0
M  END
$$$$

     RDKit          3D

 10 10  0  0  0  0  0  0  0  0999 V2000
    8.1410   40.8490   29.0550 O   0  0  0  0  0  0  0  0  0  0  0  0
    9.2580   41.0190   29.8600 C   0  0  0  0  0  0  0  0  0  0  0  0
    8.8970   39.0500   27.9040 O   0  0  0  0  0  0  0  0  0  0  0  0
    9.8990   42.0400   32.0500 C   0  0  0  0  0  0  0  0  0  0  0  0
    9.0230   41.9700   30.9210 C   0  0  0  0  0  0  0  0  0  0  0  0
    7.8250   41.6980   31.5720 O   0  0  0  0  0  0  0  0  0  0  0  0
    9.9000   39.6590   30.0570 C   0  0  0  0  0  0  0  0  0  0  0  0
    8.3870   40.9810   26.7760 N   0  0  0  0  0  0  0  0  0  0  0  0
    8.4470   40.3340   27.8440 C   0  0  0  0  0  0  0  0  0  0  0  0
    9.0430   38.6060   29.2900 C   0  0  0  0  0  0  0  0  0  0  0  0
  1  2  1  0
  2  7  1  0
  2  5  1  0
  3 10  1  0
  5  6  1  0
  5  4  1  0
  8  9  2  0
  9  3  1  0
  9  1  1  0
 10  7  1  0
M  END
$$$$

     RDKit          3D

 11 11  0  0  0  0  0  0  0  0999 V2000
    7.0200   41.0020   33.7080 C   0  0  0  0  0  0  0  0  0  0  0  0
    8.0340   41.0430   29.5980 N   0  0  0  0  0  0  0  0  0  0  0  0
    7.8970   39.7640   30.4050 C   0  0  0  0  0  0  0  0  0  0  0  0
    9.8870   41.6070   25.0630 O   0  0  0  0  0  0  0  0  0  0  0  0
    9.3300   41.0580   26.0850 C   0  0  0  0  0  0  0  0  0  0  0  0
    9.1680   41.2820   27.4030 C   0  0  0  0  0  0  0  0  0  0  0  0
    7.3000   42.2370   31.6810 C   0  0  0  0  0  0  0  0  0  0  0  0
    6.9890   41.0850   32.3130 C   0  0  0  0  0  0  0  0  0  0  0  0
    7.7670   42.2510   30.3410 C   0  0  0  0  0  0  0  0  0  0  0  0
    7.6700   39.8090   31.6840 C   0  0  0  0  0  0  0  0  0  0  0  0
    7.9530   41.0050   28.0620 C   0  0  0  0  0  0  0  0  0  0  0  0
  2  9  1  0
  2  3  1  0
  3 10  1  0
  4  5  1  0
  5  6  1  0
  6 11  1  0
  7  8  1  0
  8  1  1  0
  9  7  2  0
 10  8  1  0
 11  2  1  0
M  END
$$$$

     RDKit          3D

 39 42  0  0  0  0  0  0  0  0999 V2000
    7.2200   39.3830   22.5330 C   0  0  0  0  0  0  0  0  0  0  0  0
    7.9630   39.6730   29.6090 N   0  0  0  0  0  0  0  0  0  0  0  0
    6.8390   41.0410   27.6920 C   0  0  0  0  0  0  0  0  0  0  0  0
    6.1610   42.0490   36.5600 C   0  0  0  0  0  0  0  0  0  0  0  0
    5.4010   37.8430   20.9240 O   0  0  0  0  0  0  0  0  0  0  0  0
    7.7620   40.6510   32.3160 C   0  0  0  0  0  0  0  0  0  0  0  0
    8.0320   38.2990   30.0280 C   0  0  0  0  0  0  0  0  0  0  0  0
    7.3520   40.3410   25.4220 N   0  0  0  0  0  0  0  0  0  0  0  0
    4.3060   41.6090   39.6600 C   0  0  0  0  0  0  0  0  0  0  0  0
    7.0580   36.0720   29.6230 C   0  0  0  0  0  0  0  0  0  0  0  0
    6.4260   40.4140   34.6690 C   0  0  0  0  0  0  0  0  0  0  0  0
   10.1330   42.7760   30.5680 C   0  0  0  0  0  0  0  0  0  0  0  0
    4.9310   39.5900   36.6020 C   0  0  0  0  0  0  0  0  0  0  0  0
    5.1250   38.4290   18.6200 O   0  0  0  0  0  0  0  0  0  0  0  0
    6.8040   38.9850   19.9450 N   0  0  0  0  0  0  0  0  0  0  0  0
    7.8740   38.4260   19.7130 C   0  0  0  0  0  0  0  0  0  0  0  0
    5.7900   39.2460   35.4020 C   0  0  0  0  0  0  0  0  0  0  0  0
    7.3050   43.0440   31.8170 O   0  0  0  0  0  0  0  0  0  0  0  0
    8.6280   38.0640   31.0850 O   0  0  0  0  0  0  0  0  0  0  0  0
    5.9440   37.7740   19.6420 P   0  0  0  0  0  0  0  0  0  0  0  0
    8.4340   39.9970   23.2760 C   0  0  0  0  0  0  0  0  0  0  0  0
    9.7010   40.4060   25.3630 N   0  0  0  0  0  0  0  0  0  0  0  0
    5.8010   40.5350   37.5850 S   0  0  0  0  0  0  0  0  0  0  0  0
    9.2390   40.5450   26.5720 C   0  0  0  0  0  0  0  0  0  0  0  0
    8.0780   40.5550   21.8930 C   0  0  0  0  0  0  0  0  0  0  0  0
    9.3610   40.9400   22.4430 C   0  0  0  0  0  0  0  0  0  0  0  0
    8.4600   40.1660   20.2130 C   0  0  0  0  0  0  0  0  0  0  0  0
    6.5930   40.5050   31.7640 O   0  0  0  0  0  0  0  0  0  0  0  0
    7.6740   37.3580   29.1490 N   0  0  0  0  0  0  0  0  0  0  0  0
    6.7680   40.3080   28.9900 C   0  0  0  0  0  0  0  0  0  0  0  0
    8.4380   40.2650   24.6040 C   0  0  0  0  0  0  0  0  0  0  0  0
    9.1020   40.5550   29.9930 C   0  0  0  0  0  0  0  0  0  0  0  0
    7.8280   40.5830   26.6320 C   0  0  0  0  0  0  0  0  0  0  0  0
    8.2810   41.9590   32.0850 C   0  0  0  0  0  0  0  0  0  0  0  0
    6.3010   36.3090   19.0870 C   0  0  0  0  0  0  0  0  0  0  0  0
    7.6610   40.1260   33.8310 C   0  0  0  0  0  0  0  0  0  0  0  0
    5.2600   41.2170   38.8610 C   0  0  0  0  0  0  0  0  0  0  0  0
    6.3440   41.7310   35.0970 N   0  0  0  0  0  0  0  0  0  0  0  0
    9.1880   41.8800   30.8010 C   0  0  0  0  0  0  0  0  0  0  0  0
  1 21  1  0
  2 32  1  0
  2  7  1  0
  3 30  1  0
  4 23  1  0
  6 28  1  0
  6 36  1  0
  7 19  2  0
  8 33  2  0
 11 38  2  0
 11 17  1  0
 12 39  2  0
 13 23  1  0
 14 20  2  0
 16 15  1  0
 16 27  1  0
 17 13  1  0
 20 35  1  0
 20 15  1  0
 20  5  1  0
 21 31  1  0
 22 24  1  0
 23 37  1  0
 24 33  1  0
 25 27  1  0
 25 26  1  0
 25  1  1  0
 25 21  1  0
 26 21  1  0
 29 10  1  0
 29  7  1  0
 30  2  1  0
 31 22  2  0
 31  8  2  0
 32 39  1  0
 33  3  1  0
 34 18  1  0
 34  6  1  0
 36 11  1  0
 37  9  2  0
 38  4  1  0
 39 34  1  0
M  END
$$$$

     RDKit          3D

 12 13  0  0  0  0  0  0  0  0999 V2000
    8.1830   42.6200   30.9790 N   0  0  0  0  0  0  0  0  0  0  0  0
    8.8620   38.5550   29.2210 C   0  0  0  0  0  0  0  0  0  0  0  0
    9.9730   39.5330   28.6780 C   0  0  0  0  0  0  0  0  0  0  0  0
    9.9880   38.6090   27.3760 N   0  0  0  0  0  0  0  0  0  0  0  0
    9.9700   37.3490   28.1900 N   0  0  0  0  0  0  0  0  0  0  0  0
    9.1660   40.9420   28.7600 C   0  0  0  0  0  0  0  0  0  0  0  0
    8.9570   43.6710   31.0550 C   0  0  0  0  0  0  0  0  0  0  0  0
    7.4340   41.6960   30.4380 C   0  0  0  0  0  0  0  0  0  0  0  0
    7.7880   40.6390   29.5560 C   0  0  0  0  0  0  0  0  0  0  0  0
    8.3310   39.2650   30.7330 S   0  0  0  0  0  0  0  0  0  0  0  0
    8.8700   36.5550   29.6870 C   0  0  0  0  0  0  0  0  0  0  0  0
    9.8440   37.6960   29.4960 C   0  0  0  0  0  0  0  0  0  0  0  0
  1  7  3  0
  2 12  1  0
  2 10  1  0
  3  6  1  0
  3  2  1  0
  4  5  1  0
  4  3  1  0
  5 12  1  0
  6  9  1  0
  8  1  1  0
  9  8  1  0
  9 10  1  0
 12 11  1  0
M  END
$$$$

     RDKit          3D

 23 26  0  0  0  0  0  0  0  0999 V2000
    7.0330   41.4270   30.5380 C   0  0  0  0  0  0  0  0  0  0  0  0
    9.2610   42.0380   29.2680 C   0  0  0  0  0  0  0  0  0  0  0  0
    8.6560   39.6210   29.6130 C   0  0  0  0  0  0  0  0  0  0  0  0
    8.4390   42.9880   32.2840 O   0  0  0  0  0  0  0  0  0  0  0  0
    9.9170   43.1530   29.8800 C   0  0  0  0  0  0  0  0  0  0  0  0
    8.4780   40.7600   30.1260 C   0  0  0  0  0  0  0  0  0  0  0  0
    9.3470   32.8390   27.2300 C   0  0  0  0  0  0  0  0  0  0  0  0
    7.0430   38.2000   31.0520 C   0  0  0  0  0  0  0  0  0  0  0  0
    7.1250   35.7840   30.8110 C   0  0  0  0  0  0  0  0  0  0  0  0
    7.1290   42.5740   31.6810 C   0  0  0  0  0  0  0  0  0  0  0  0
    7.2450   31.8300   28.2790 C   0  0  0  0  0  0  0  0  0  0  0  0
    7.5350   34.5080   28.4490 C   0  0  0  0  0  0  0  0  0  0  0  0
    6.1080   39.3680   31.4210 C   0  0  0  0  0  0  0  0  0  0  0  0
   11.3380   43.0110   29.9600 C   0  0  0  0  0  0  0  0  0  0  0  0
    6.0670   40.5910   31.0510 C   0  0  0  0  0  0  0  0  0  0  0  0
    6.8840   33.1890   29.0550 C   0  0  0  0  0  0  0  0  0  0  0  0
    8.1800   37.2050   28.9980 C   0  0  0  0  0  0  0  0  0  0  0  0
    8.8370   31.7700   28.2120 C   0  0  0  0  0  0  0  0  0  0  0  0
    8.9590   34.2690   27.8150 C   0  0  0  0  0  0  0  0  0  0  0  0
    6.9430   36.9150   31.5490 C   0  0  0  0  0  0  0  0  0  0  0  0
    8.0120   38.4390   29.8450 C   0  0  0  0  0  0  0  0  0  0  0  0
   11.2880   44.3680   29.7820 O   0  0  0  0  0  0  0  0  0  0  0  0
    7.6410   35.8150   29.4660 C   0  0  0  0  0  0  0  0  0  0  0  0
  1 15  1  0
  1 10  1  0
  3 21  1  0
  3  6  1  0
  5  2  1  0
  5 14  1  0
  6  2  1  0
  6  1  1  0
  7 19  1  0
  7 18  1  0
  8 13  1  0
  8 20  1  0
  9 20  2  0
 10  4  1  0
 11 16  1  0
 12 16  1  0
 12 23  1  0
 15 13  1  0
 17 23  2  0
 17 21  1  0
 18 11  1  0
 19 12  1  0
 21  8  2  0
 22  5  1  0
 22 14  1  0
 23  9  1  0
M  END
$$$$

     RDKit          3D

  9 11  0  0  0  0  0  0  0  0999 V2000
    9.5660   43.1250   30.6860 C   0  0  0  0  0  0  0  0  0  0  0  0
    8.8210   42.1610   30.6080 C   0  0  0  0  0  0  0  0  0  0  0  0
    7.7940   39.0890   30.4470 C   0  0  0  0  0  0  0  0  0  0  0  0
    8.4960   38.9340   31.6930 C   0  0  0  0  0  0  0  0  0  0  0  0
    9.1510   39.0230   30.3440 C   0  0  0  0  0  0  0  0  0  0  0  0
    9.1030   41.7240   32.2750 C   0  0  0  0  0  0  0  0  0  0  0  0
    8.8250   41.1630   30.5190 C   0  0  0  0  0  0  0  0  0  0  0  0
    9.2670   42.8010   31.9760 C   0  0  0  0  0  0  0  0  0  0  0  0
    9.7720   40.2080   30.4030 C   0  0  0  0  0  0  0  0  0  0  0  0
  2  1  1  0
  2  8  1  0
  3  4  1  0
  5  9  1  0
  5  3  1  0
  5  4  1  0
  7  9  1  0
  7  2  1  0
  7  6  1  0
  8  1  1  0
  8  6  1  0
M  END
$$$$

     RDKit          3D

  3  2  0  0  0  0  0  0  0  0999 V2000
    4.2840   38.9240   26.7140 Br  0  0  0  0  0  0  0  0  0  0  0  0
    4.1620   39.2440   27.0370 O   0  0  0  0  0  0  0  0  0  0  0  0
    4.2960   39.3220   26.6660 O   0  0  0  0  0  0  0  0  0  0  0  0
  3  1  1  0
  3  2  1  0
M  END
$$$$

     RDKit          3D

 49 49  0  0  0  0  0  0  0  0999 V2000
    9.7320   42.6700   23.6760 F   0  0  0  0  0  0  0  0  0  0  0  0
   10.1700   41.5590   20.7410 O   0  0  0  0  0  0  0  0  0  0  0  0
   11.3690   36.5730   23.3360 C   0  0  0  0  0  0  0  0  0  0  0  0
    6.2960   38.4720   30.3970 C   0  0  0  0  0  0  0  0  0  0  0  0
    6.7250   36.1900   31.4480 S   0  0  0  0  0  0  0  0  0  0  0  0
    9.9240   38.1620   27.5180 C   0  0  0  0  0  0  0  0  0  0  0  0
   10.1040   40.4950   26.6590 C   0  0  0  0  0  0  0  0  0  0  0  0
    3.6090   39.7310   35.5110 O   0  0  0  0  0  0  0  0  0  0  0  0
    5.4340   37.6940   34.8190 N   0  0  0  0  0  0  0  0  0  0  0  0
   10.7450   39.3830   22.5780 C   0  0  0  0  0  0  0  0  0  0  0  0
    7.6310   40.0110   31.3890 O   0  0  0  0  0  0  0  0  0  0  0  0
    4.2230   36.4490   36.7260 O   0  0  0  0  0  0  0  0  0  0  0  0
    6.5890   39.1700   31.7610 C   0  0  0  0  0  0  0  0  0  0  0  0
    6.0770   30.8190   26.3610 O   0  0  0  0  0  0  0  0  0  0  0  0
    3.0390   38.7110   37.6440 C   0  0  0  0  0  0  0  0  0  0  0  0
    7.8180   39.6540   27.1480 C   0  0  0  0  0  0  0  0  0  0  0  0
    2.3150   40.6300   35.5160 C   0  0  0  0  0  0  0  0  0  0  0  0
    9.1660   39.1760   26.8170 C   0  0  0  0  0  0  0  0  0  0  0  0
    3.3740   38.6450   36.2600 C   0  0  0  0  0  0  0  0  0  0  0  0
   15.4800   43.2770   22.2360 C   0  0  0  0  0  0  0  0  0  0  0  0
    2.3430   40.0000   38.0350 C   0  0  0  0  0  0  0  0  0  0  0  0
    8.3130   33.3990   26.6670 C   0  0  0  0  0  0  0  0  0  0  0  0
   15.6110   42.4360   23.3370 O   0  0  0  0  0  0  0  0  0  0  0  0
   10.5930   37.8810   23.6660 C   0  0  0  0  0  0  0  0  0  0  0  0
    6.7140   39.1620   29.0390 C   0  0  0  0  0  0  0  0  0  0  0  0
    9.5180   40.9920   24.9020 C   0  0  0  0  0  0  0  0  0  0  0  0
   10.1180   41.8210   23.9660 C   0  0  0  0  0  0  0  0  0  0  0  0
   11.3910   36.6320   21.5800 S   0  0  0  0  0  0  0  0  0  0  0  0
    2.3780   41.0040   36.9810 C   0  0  0  0  0  0  0  0  0  0  0  0
    6.3090   38.8010   34.2660 C   0  0  0  0  0  0  0  0  0  0  0  0
   11.1680   34.9240   25.0450 C   0  0  0  0  0  0  0  0  0  0  0  0
    6.9360   36.9560   33.0380 C   0  0  0  0  0  0  0  0  0  0  0  0
    4.7090   37.4880   36.1300 C   0  0  0  0  0  0  0  0  0  0  0  0
   10.6480   40.9760   22.9370 C   0  0  0  0  0  0  0  0  0  0  0  0
    9.8370   33.5930   26.5750 C   0  0  0  0  0  0  0  0  0  0  0  0
   10.8910   41.5310   21.7090 C   0  0  0  0  0  0  0  0  0  0  0  0
    8.1290   40.9670   31.9690 C   0  0  0  0  0  0  0  0  0  0  0  0
    7.4570   38.6620   28.5270 C   0  0  0  0  0  0  0  0  0  0  0  0
   10.0650   36.8540   26.8870 C   0  0  0  0  0  0  0  0  0  0  0  0
   11.3060   35.6520   24.1780 N   0  0  0  0  0  0  0  0  0  0  0  0
    8.2650   41.4260   24.7860 O   0  0  0  0  0  0  0  0  0  0  0  0
    7.6840   32.6280   25.7270 C   0  0  0  0  0  0  0  0  0  0  0  0
   12.1750   41.9450   21.5950 N   0  0  0  0  0  0  0  0  0  0  0  0
    9.6980   39.2790   24.1270 O   0  0  0  0  0  0  0  0  0  0  0  0
    6.8450   38.3230   33.0180 C   0  0  0  0  0  0  0  0  0  0  0  0
   10.5040   34.5750   25.9250 C   0  0  0  0  0  0  0  0  0  0  0  0
    7.0230   31.3960   26.0290 C   0  0  0  0  0  0  0  0  0  0  0  0
   13.7370   43.8100   22.3170 C   0  0  0  0  0  0  0  0  0  0  0  0
   12.5700   42.6540   22.8970 C   0  0  0  0  0  0  0  0  0  0  0  0
  2 36  2  0
  3 24  1  0
  3 40  1  0
  5 32  1  0
  8 17  1  0
  8 19  1  0
  9 33  1  0
 10 24  1  0
 11 13  1  0
 11 37  1  0
 13  4  1  0
 13 45  1  0
 15 21  1  0
 16 38  1  0
 17 29  1  0
 18  7  1  0
 18 16  1  0
 18  6  1  0
 19 33  1  0
 19 15  1  0
 20 48  1  0
 20 23  1  0
 24 44  1  0
 25  4  1  0
 26 41  1  0
 26  7  1  0
 27  1  1  0
 27 26  1  0
 28  3  2  0
 29 21  1  0
 30  9  1  0
 31 46  1  0
 33 12  2  0
 34 10  1  0
 34 27  1  0
 35 22  1  0
 36 34  1  0
 38 25  1  0
 39  6  1  0
 40 31  1  0
 42 47  1  0
 42 22  1  0
 43 36  1  0
 43 49  1  0
 45 32  1  0
 45 30  1  0
 46 35  1  0
 47 14  2  0
 48 49  1  0
M  END
$$$$

     RDKit          3D

 12 12  0  0  0  0  0  0  0  0999 V2000
   10.5940   38.2450   26.3640 O   0  0  0  0  0  0  0  0  0  0  0  0
    9.7630   39.2840   25.7230 C   0  0  0  0  0  0  0  0  0  0  0  0
    8.7270   39.6300   30.2610 N   0  0  0  0  0  0  0  0  0  0  0  0
    9.3230   37.9820   28.7250 O   0  0  0  0  0  0  0  0  0  0  0  0
    8.9550   39.9440   26.5070 O   0  0  0  0  0  0  0  0  0  0  0  0
   10.1700   42.3170   27.5520 O   0  0  0  0  0  0  0  0  0  0  0  0
    7.4640   41.1260   31.6510 C   0  0  0  0  0  0  0  0  0  0  0  0
    8.6380   40.9830   30.9290 C   0  0  0  0  0  0  0  0  0  0  0  0
    9.5030   41.7390   30.2350 C   0  0  0  0  0  0  0  0  0  0  0  0
    8.8470   40.2700   27.9590 C   0  0  0  0  0  0  0  0  0  0  0  0
    8.5950   39.1100   29.1110 C   0  0  0  0  0  0  0  0  0  0  0  0
    9.6130   41.5210   28.5830 C   0  0  0  0  0  0  0  0  0  0  0  0
  2  1  1  0
  2  5  1  0
  3  8  2  0
  6 12  1  0
  8  7  1  0
  9  8  1  0
 10  5  1  0
 10 12  1  0
 10 11  1  0
 11  4  1  0
 11  3  1  0
 12  9  2  0
M  END
$$$$

     RDKit          3D

 34 35  0  0  0  0  0  0  0  0999 V2000
    8.0290   39.6010   28.2830 C   0  0  0  0  0  0  0  0  0  0  0  0
    2.5690   42.0420   34.9220 O   0  0  0  0  0  0  0  0  0  0  0  0
    9.9040   41.2190   24.4410 C   0  0  0  0  0  0  0  0  0  0  0  0
    7.5850   39.3620   31.2870 C   0  0  0  0  0  0  0  0  0  0  0  0
    9.6690   39.8970   20.3140 N   0  0  0  0  0  0  0  0  0  0  0  0
   10.5210   41.2560   22.0530 C   0  0  0  0  0  0  0  0  0  0  0  0
    7.4780   40.5730   30.3800 C   0  0  0  0  0  0  0  0  0  0  0  0
    7.3050   33.9100   29.2850 C   0  0  0  0  0  0  0  0  0  0  0  0
    6.7270   37.6680   29.4190 C   0  0  0  0  0  0  0  0  0  0  0  0
   10.3530   40.5320   23.0670 C   0  0  0  0  0  0  0  0  0  0  0  0
    3.8600   34.6590   28.5430 N   0  0  0  0  0  0  0  0  0  0  0  0
   11.8390   41.5990   21.8840 O   0  0  0  0  0  0  0  0  0  0  0  0
    3.5090   43.4080   36.8600 C   0  0  0  0  0  0  0  0  0  0  0  0
    8.5260   39.8400   27.3180 N   0  0  0  0  0  0  0  0  0  0  0  0
    8.0200   38.2330   28.5370 C   0  0  0  0  0  0  0  0  0  0  0  0
    6.5330   36.2190   29.2570 N   0  0  0  0  0  0  0  0  0  0  0  0
    8.3720   40.6410   26.4590 C   0  0  0  0  0  0  0  0  0  0  0  0
    6.5190   41.9930   33.3770 C   0  0  0  0  0  0  0  0  0  0  0  0
    4.6370   33.5440   28.2850 C   0  0  0  0  0  0  0  0  0  0  0  0
    4.6650   32.2810   28.3890 O   0  0  0  0  0  0  0  0  0  0  0  0
    6.3860   41.2590   31.0750 N   0  0  0  0  0  0  0  0  0  0  0  0
    3.4210   42.8130   35.4370 C   0  0  0  0  0  0  0  0  0  0  0  0
    4.8320   43.2300   34.7660 C   0  0  0  0  0  0  0  0  0  0  0  0
    6.8710   38.1160   30.7310 C   0  0  0  0  0  0  0  0  0  0  0  0
    9.5950   40.0650   25.5130 C   0  0  0  0  0  0  0  0  0  0  0  0
    6.1200   33.5670   28.4070 C   0  0  0  0  0  0  0  0  0  0  0  0
    7.3160   40.7020   28.8190 C   0  0  0  0  0  0  0  0  0  0  0  0
    2.8980   42.2810   33.0580 C   0  0  0  0  0  0  0  0  0  0  0  0
    9.6080   40.9840   21.0670 C   0  0  0  0  0  0  0  0  0  0  0  0
    5.2060   42.5240   33.5910 N   0  0  0  0  0  0  0  0  0  0  0  0
   10.3390   42.4580   24.8500 C   0  0  0  0  0  0  0  0  0  0  0  0
    7.5120   35.3100   29.7970 C   0  0  0  0  0  0  0  0  0  0  0  0
    4.1640   42.0650   32.7070 C   0  0  0  0  0  0  0  0  0  0  0  0
    7.2060   41.2380   32.1940 C   0  0  0  0  0  0  0  0  0  0  0  0
  1 14  1  0
  1 15  1  0
  1 27  1  0
  2 22  2  0
  3 31  2  0
  3 25  1  0
  5 29  2  0
  6 12  1  0
  6 10  1  0
  7 27  1  0
  7 21  1  0
  7  4  1  0
  7 34  1  0
  8 32  1  0
  9 16  1  0
  9 24  1  0
 10  3  1  0
 15  9  1  0
 16 32  1  0
 17 14  1  0
 18 30  1  0
 19 20  2  0
 19 26  1  0
 19 11  1  0
 21 34  1  0
 22 13  1  0
 23 22  1  0
 24  4  1  0
 25 17  1  0
 26  8  1  0
 29  6  1  0
 30 23  1  0
 33 28  2  0
 33 30  1  0
 34 18  1  0
M  END
$$$$

     RDKit          3D

 12 11  0  0  0  0  0  0  0  0999 V2000
    6.2160   42.1240   30.8520 O   0  0  0  0  0  0  0  0  0  0  0  0
    8.4860   41.2510   29.2810 C   0  0  0  0  0  0  0  0  0  0  0  0
   10.5000   42.4360   31.3640 O   0  0  0  0  0  0  0  0  0  0  0  0
    7.3550   37.6410   30.1050 C   0  0  0  0  0  0  0  0  0  0  0  0
    9.3520   42.0410   29.3410 O   0  0  0  0  0  0  0  0  0  0  0  0
    6.4660   38.7800   30.8720 S   0  0  0  0  0  0  0  0  0  0  0  0
    6.9220   41.3950   30.4370 C   0  0  0  0  0  0  0  0  0  0  0  0
   10.6530   43.5620   30.5260 C   0  0  0  0  0  0  0  0  0  0  0  0
    7.8140   40.7870   29.2330 C   0  0  0  0  0  0  0  0  0  0  0  0
   10.2440   45.0840   29.9340 C   0  0  0  0  0  0  0  0  0  0  0  0
    9.4080   43.2520   29.9930 N   0  0  0  0  0  0  0  0  0  0  0  0
    7.1760   40.3070   30.0250 C   0  0  0  0  0  0  0  0  0  0  0  0
  2  5  1  0
  4  6  1  0
  5 11  1  0
  7  1  2  0
  8  3  1  0
  9  2  1  0
 10  8  1  0
 11  8  2  3
 12  9  1  0
 12  7  1  0
 12  6  1  0
M  END
$$$$

     RDKit          3D

 12 13  0  0  0  0  0  0  0  0999 V2000
    7.2530   38.7510   30.1510 N   0  0  0  0  0  0  0  0  0  0  0  0
    6.7080   34.5030   30.3150 C   0  0  0  0  0  0  0  0  0  0  0  0
    7.9130   38.6470   32.5250 C   0  0  0  0  0  0  0  0  0  0  0  0
    7.0560   36.6380   31.3940 C   0  0  0  0  0  0  0  0  0  0  0  0
    6.5400   35.3410   31.3790 C   0  0  0  0  0  0  0  0  0  0  0  0
    7.5460   36.4290   29.0100 C   0  0  0  0  0  0  0  0  0  0  0  0
    7.3370   37.2470   32.7880 N   0  0  0  0  0  0  0  0  0  0  0  0
    7.6230   34.2380   28.0000 N   0  0  0  0  0  0  0  0  0  0  0  0
    7.2590   35.0470   29.1090 C   0  0  0  0  0  0  0  0  0  0  0  0
    7.2310   39.2560   33.8270 O   0  0  0  0  0  0  0  0  0  0  0  0
    6.9250   39.3700   31.4470 C   0  0  0  0  0  0  0  0  0  0  0  0
    7.3150   37.3090   30.1470 C   0  0  0  0  0  0  0  0  0  0  0  0
  1 11  1  0
  2  5  2  0
  3  7  1  0
  3 10  1  0
  4  7  2  0
  5  4  1  0
  6  9  2  0
  6 12  1  0
  8  9  1  0
  9  2  1  0
 11  3  1  0
 12  1  2  0
 12  4  1  0
M  END
$$$$

     RDKit          3D

 10 10  0  0  0  0  0  0  0  0999 V2000
    9.4870   38.3490   29.9400 O   0  0  0  0  0  0  0  0  0  0  0  0
   10.3900   41.2040   29.2360 O   0  0  0  0  0  0  0  0  0  0  0  0
    6.3780   41.6020   30.7640 C   0  0  0  0  0  0  0  0  0  0  0  0
    7.7630   41.2260   30.3880 C   0  0  0  0  0  0  0  0  0  0  0  0
    8.0350   42.7570   30.5470 C   0  0  0  0  0  0  0  0  0  0  0  0
    8.2640   38.8150   29.6410 C   0  0  0  0  0  0  0  0  0  0  0  0
    8.3070   40.7380   31.7370 O   0  0  0  0  0  0  0  0  0  0  0  0
    8.1130   40.2690   29.3570 C   0  0  0  0  0  0  0  0  0  0  0  0
    9.2860   40.6780   28.4200 C   0  0  0  0  0  0  0  0  0  0  0  0
    8.5550   37.9550   30.7300 C   0  0  0  0  0  0  0  0  0  0  0  0
  1 10  1  0
  4  5  1  0
  4  3  1  0
  4  7  1  0
  6  8  1  0
  6  1  1  0
  6 10  1  0
  8  9  1  0
  8  4  1  0
  9  2  1  0
M  END
$$$$

     RDKit          3D

 52 58  0  0  0  0  0  0  0  0999 V2000
    8.5690   39.0060   28.4120 C   0  0  0  0  0  0  0  0  0  0  0  0
    3.4140   41.0120   32.8110 C   0  0  0  0  0  0  0  0  0  0  0  0
    6.5770   41.3250   33.7640 C   0  0  0  0  0  0  0  0  0  0  0  0
    9.8330   39.8730   21.1640 C   0  0  0  0  0  0  0  0  0  0  0  0
    7.8150   39.9690   24.1660 N   0  0  0  0  0  0  0  0  0  0  0  0
    5.2010   30.6150   29.8270 C   0  0  0  0  0  0  0  0  0  0  0  0
    6.2260   39.5210   21.4420 N   0  0  0  0  0  0  0  0  0  0  0  0
    7.5790   40.6100   35.7350 C   0  0  0  0  0  0  0  0  0  0  0  0
    8.6290   40.6890   24.8740 C   0  0  0  0  0  0  0  0  0  0  0  0
    8.3360   42.8250   32.6170 C   0  0  0  0  0  0  0  0  0  0  0  0
    5.9760   40.2320   31.3400 C   0  0  0  0  0  0  0  0  0  0  0  0
    7.4200   40.4060   34.2920 C   0  0  0  0  0  0  0  0  0  0  0  0
    4.4680   40.6420   31.8940 C   0  0  0  0  0  0  0  0  0  0  0  0
    8.5380   42.8200   34.0120 C   0  0  0  0  0  0  0  0  0  0  0  0
    7.6880   40.1890   28.1340 N   0  0  0  0  0  0  0  0  0  0  0  0
    3.1150   42.4560   33.1220 C   0  0  0  0  0  0  0  0  0  0  0  0
    9.0920   41.7380   24.5380 O   0  0  0  0  0  0  0  0  0  0  0  0
    8.6150   42.3200   31.1440 C   0  0  0  0  0  0  0  0  0  0  0  0
    7.7090   40.7680   26.8990 O   0  0  0  0  0  0  0  0  0  0  0  0
    4.6520   30.6490   26.1920 C   0  0  0  0  0  0  0  0  0  0  0  0
    9.8070   39.5420   22.6190 C   0  0  0  0  0  0  0  0  0  0  0  0
    8.5290   38.1340   29.1250 N   0  0  0  0  0  0  0  0  0  0  0  0
    9.2730   42.8130   29.5450 C   0  0  0  0  0  0  0  0  0  0  0  0
    8.5740   39.7760   20.5460 C   0  0  0  0  0  0  0  0  0  0  0  0
    8.3150   39.4730   22.7990 C   0  0  0  0  0  0  0  0  0  0  0  0
   10.3780   43.8720   29.8520 C   0  0  0  0  0  0  0  0  0  0  0  0
   11.0490   43.4520   31.3100 C   0  0  0  0  0  0  0  0  0  0  0  0
    6.4850   39.9130   29.9110 C   0  0  0  0  0  0  0  0  0  0  0  0
   10.4850   38.4130   27.6350 F   0  0  0  0  0  0  0  0  0  0  0  0
    5.6120   34.4740   29.0660 O   0  0  0  0  0  0  0  0  0  0  0  0
    8.1410   43.0330   35.4120 C   0  0  0  0  0  0  0  0  0  0  0  0
    8.7410   36.7550   28.7670 C   0  0  0  0  0  0  0  0  0  0  0  0
    7.8110   36.1110   29.6140 N   0  0  0  0  0  0  0  0  0  0  0  0
    5.2070   29.9470   27.2700 C   0  0  0  0  0  0  0  0  0  0  0  0
    6.7580   42.0050   32.7650 C   0  0  0  0  0  0  0  0  0  0  0  0
    9.5510   44.9380   30.6220 C   0  0  0  0  0  0  0  0  0  0  0  0
    8.9000   40.1420   26.3300 C   0  0  0  0  0  0  0  0  0  0  0  0
    3.9250   32.3960   27.8630 C   0  0  0  0  0  0  0  0  0  0  0  0
    7.5930   40.0350   21.6250 C   0  0  0  0  0  0  0  0  0  0  0  0
    6.5050   32.6750   28.7620 N   0  0  0  0  0  0  0  0  0  0  0  0
    6.7340   34.2600   28.5740 C   0  0  0  0  0  0  0  0  0  0  0  0
    5.6850   42.8330   33.0940 C   0  0  0  0  0  0  0  0  0  0  0  0
    6.7130   40.7030   28.9400 C   0  0  0  0  0  0  0  0  0  0  0  0
    5.1530   39.6460   32.0140 O   0  0  0  0  0  0  0  0  0  0  0  0
    9.5430   39.0850   27.3430 C   0  0  0  0  0  0  0  0  0  0  0  0
    9.8490   43.2220   33.5990 N   0  0  0  0  0  0  0  0  0  0  0  0
    3.7290   31.9300   26.4550 C   0  0  0  0  0  0  0  0  0  0  0  0
   10.3810   42.7030   32.3140 C   0  0  0  0  0  0  0  0  0  0  0  0
    7.9200   34.6490   29.1950 C   0  0  0  0  0  0  0  0  0  0  0  0
    5.4980   31.3950   28.2830 S   0  0  0  0  0  0  0  0  0  0  0  0
    7.3650   41.9920   36.0570 N   0  0  0  0  0  0  0  0  0  0  0  0
    4.2600   43.4090   33.1990 C   0  0  0  0  0  0  0  0  0  0  0  0
  1 22  1  0
  2 16  1  0
  3 12  1  0
  4 21  1  0
  5  9  1  0
  8 51  1  0
 10 18  1  0
 10 35  1  0
 10 46  1  0
 10 14  1  0
 11 28  1  0
 11 13  1  0
 11 44  1  0
 12  8  1  0
 13 44  1  0
 13  2  1  0
 14 31  1  0
 15  1  1  0
 15 43  1  0
 16 52  2  3
 17  9  2  0
 19 15  1  0
 20 47  1  0
 20 34  1  0
 21 25  1  0
 23 26  1  0
 23 18  1  0
 24  4  1  0
 24 39  1  0
 25  5  1  0
 26 36  1  0
 26 27  1  0
 27 48  1  0
 31 51  1  0
 32 22  1  0
 32 33  1  0
 34 50  1  0
 35 42  1  0
 35  3  1  0
 37  9  1  0
 37 19  1  0
 37 45  1  0
 38 50  1  0
 39  7  1  0
 39 25  1  0
 41 40  1  0
 41 30  1  0
 41 49  1  0
 42 52  1  0
 43 28  1  0
 45 29  1  0
 45  1  1  0
 46 48  1  0
 46 14  1  0
 47 38  1  0
 49 33  1  0
 50 40  1  0
 50  6  1  0
M  END
$$$$

     RDKit          3D

 11 11  0  0  0  0  0  0  0  0999 V2000
    8.8170   40.9170   29.0160 O   0  0  0  0  0  0  0  0  0  0  0  0
   10.4560   37.7170   26.2320 O   0  0  0  0  0  0  0  0  0  0  0  0
    7.7860   40.3420   28.2230 C   0  0  0  0  0  0  0  0  0  0  0  0
    8.9780   36.8290   28.8780 O   0  0  0  0  0  0  0  0  0  0  0  0
   10.0820   38.9510   26.5590 C   0  0  0  0  0  0  0  0  0  0  0  0
    6.9950   38.0720   29.7750 O   0  0  0  0  0  0  0  0  0  0  0  0
    9.1160   38.2770   28.8940 C   0  0  0  0  0  0  0  0  0  0  0  0
   10.0450   40.4110   28.6610 C   0  0  0  0  0  0  0  0  0  0  0  0
    7.6760   38.8710   28.6840 C   0  0  0  0  0  0  0  0  0  0  0  0
   10.0270   39.0710   28.0990 C   0  0  0  0  0  0  0  0  0  0  0  0
    9.8680   39.9450   25.7490 N   0  0  0  0  0  0  0  0  0  0  0  0
  2  5  2  0
  3  9  1  0
  3  1  1  0
  7  4  1  0
  8  1  1  0
  9  7  1  0
  9  6  1  0
 10  5  1  0
 10  8  1  0
 10  7  1  0
 11  5  1  0
M  END
$$$$

     RDKit          3D

 38 40  0  0  0  0  0  0  0  0999 V2000
    8.3440   40.4580   27.0130 C   0  0  0  0  0  0  0  0  0  0  0  0
    9.8860   43.1440   24.3750 C   0  0  0  0  0  0  0  0  0  0  0  0
    5.2950   42.8540   31.3650 O   0  0  0  0  0  0  0  0  0  0  0  0
    6.4880   42.1800   30.9050 C   0  0  0  0  0  0  0  0  0  0  0  0
    1.8660   47.3940   32.9630 O   0  0  0  0  0  0  0  0  0  0  0  0
    2.7590   48.5750   31.0020 C   0  0  0  0  0  0  0  0  0  0  0  0
    7.4640   42.7370   31.4290 O   0  0  0  0  0  0  0  0  0  0  0  0
    4.9130   43.4830   33.5610 C   0  0  0  0  0  0  0  0  0  0  0  0
    7.3620   40.6320   26.3940 O   0  0  0  0  0  0  0  0  0  0  0  0
    9.8650   40.9580   25.3120 C   0  0  0  0  0  0  0  0  0  0  0  0
    5.0960   44.7640   32.9890 C   0  0  0  0  0  0  0  0  0  0  0  0
    4.2320   46.2670   32.9080 N   0  0  0  0  0  0  0  0  0  0  0  0
    9.8690   44.9060   24.2420 S   0  0  0  0  0  0  0  0  0  0  0  0
    4.1830   45.6530   33.7690 C   0  0  0  0  0  0  0  0  0  0  0  0
    8.9620   46.2530   22.2900 C   0  0  0  0  0  0  0  0  0  0  0  0
    2.6750   47.7060   32.0600 C   0  0  0  0  0  0  0  0  0  0  0  0
    9.2020   42.6360   23.2120 C   0  0  0  0  0  0  0  0  0  0  0  0
    9.4950   40.3890   24.1790 N   0  0  0  0  0  0  0  0  0  0  0  0
    6.4060   41.2460   29.8740 C   0  0  0  0  0  0  0  0  0  0  0  0
    3.2090   42.3150   34.9990 O   0  0  0  0  0  0  0  0  0  0  0  0
    3.9920   47.5350   32.2310 O   0  0  0  0  0  0  0  0  0  0  0  0
   10.5300   42.3320   25.4520 C   0  0  0  0  0  0  0  0  0  0  0  0
    8.4410   40.5790   22.2990 O   0  0  0  0  0  0  0  0  0  0  0  0
    2.4800   43.2380   33.0740 O   0  0  0  0  0  0  0  0  0  0  0  0
    3.4600   43.4130   34.1310 C   0  0  0  0  0  0  0  0  0  0  0  0
    8.7240   43.5860   22.4180 N   0  0  0  0  0  0  0  0  0  0  0  0
    8.4980   40.0420   30.2310 C   0  0  0  0  0  0  0  0  0  0  0  0
    3.4650   49.9780   29.1170 C   0  0  0  0  0  0  0  0  0  0  0  0
    9.0680   41.2170   23.1210 C   0  0  0  0  0  0  0  0  0  0  0  0
    9.7100   40.4150   26.5490 O   0  0  0  0  0  0  0  0  0  0  0  0
    8.2550   40.4690   28.3940 N   0  0  0  0  0  0  0  0  0  0  0  0
    4.9750   42.3420   32.5550 C   0  0  0  0  0  0  0  0  0  0  0  0
    3.5840   49.5290   30.5060 N   0  0  0  0  0  0  0  0  0  0  0  0
    7.8640   41.0880   29.3860 C   0  0  0  0  0  0  0  0  0  0  0  0
    3.3380   44.8860   34.6050 C   0  0  0  0  0  0  0  0  0  0  0  0
    5.6770   41.6070   28.6960 C   0  0  0  0  0  0  0  0  0  0  0  0
    2.2460   47.7640   29.7140 C   0  0  0  0  0  0  0  0  0  0  0  0
    9.0350   44.8390   22.7360 C   0  0  0  0  0  0  0  0  0  0  0  0
  1 31  1  0
  2 22  1  0
  3 32  1  0
  4  3  1  0
  4  7  2  0
  6 37  1  0
  6 16  1  0
  8 32  1  0
  8 25  1  0
  9  1  2  0
 10 22  1  0
 10 30  1  0
 11  8  1  0
 11 14  1  0
 13  2  1  0
 14 12  1  0
 14 35  1  0
 15 38  1  0
 16 21  1  0
 16  5  2  0
 17  2  1  0
 18 10  2  0
 19 36  1  0
 19  4  1  0
 21 12  1  0
 23 29  2  0
 24 25  1  0
 25 35  1  0
 25 20  1  0
 26 38  2  0
 26 17  2  0
 28 33  1  0
 29 17  1  0
 29 18  2  0
 30  1  1  0
 31 34  1  0
 33  6  1  0
 34 19  1  0
 34 27  1  0
 38 13  1  0
M  END
$$$$
