
     RDKit          3D

  6  6  0  0  0  0  0  0  0  0999 V2000
    9.8490   38.7660   29.2040 O   0  0  0  0  0  0  0  0  0  0  0  0
   10.3270   41.5200   30.7780 O   0  0  0  0  0  0  0  0  0  0  0  0
   10.4870   39.4350   30.8010 C   0  0  0  0  0  0  0  0  0  0  0  0
    9.3320   39.5010   28.2270 O   0  0  0  0  0  0  0  0  0  0  0  0
   11.4030   40.6110   30.3460 C   0  0  0  0  0  0  0  0  0  0  0  0
    9.4080   40.4770   30.7130 O   0  0  0  0  0  0  0  0  0  0  0  0
  3  1  1  0
  4  1  1  0
  5  2  1  0
  5  3  1  0
  6  2  1  0
  6  3  1  0
M  END
$$$$

     RDKit          3D

  8  8  0  0  0  0  0  0  0  0999 V2000
    7.6040   40.7450   29.5320 C   0  0  0  0  0  0  0  0  0  0  0  0
    8.5320   38.1140   28.5780 C   0  0  0  0  0  0  0  0  0  0  0  0
    8.7730   40.6110   28.4540 C   0  0  0  0  0  0  0  0  0  0  0  0
    9.8320   41.4930   28.8120 C   0  0  0  0  0  0  0  0  0  0  0  0
    8.3660   39.2910   27.7530 C   0  0  0  0  0  0  0  0  0  0  0  0
    7.3070   39.4840   30.2750 C   0  0  0  0  0  0  0  0  0  0  0  0
    7.3920   38.2180   29.5170 C   0  0  0  0  0  0  0  0  0  0  0  0
    8.8020   41.2340   27.3140 O   0  0  0  0  0  0  0  0  0  0  0  0
  1  6  1  0
  2  7  1  0
  3  4  1  0
  3  1  1  0
  5  3  1  0
  5  2  1  0
  7  6  1  0
  8  3  1  0
M  END
$$$$

     RDKit          3D

 12 12  0  0  0  0  0  0  0  0999 V2000
    8.4640   37.3360   30.4080 O   0  0  0  0  0  0  0  0  0  0  0  0
    8.5240   39.0030   28.4040 C   0  0  0  0  0  0  0  0  0  0  0  0
    8.1640   38.7100   30.6940 C   0  0  0  0  0  0  0  0  0  0  0  0
    8.6600   37.8950   28.0500 O   0  0  0  0  0  0  0  0  0  0  0  0
    8.3040   40.9270   29.8450 C   0  0  0  0  0  0  0  0  0  0  0  0
    7.9510   38.9520   32.1150 C   0  0  0  0  0  0  0  0  0  0  0  0
    7.6320   37.7600   32.8230 C   0  0  0  0  0  0  0  0  0  0  0  0
    7.3020   36.8270   32.6680 O   0  0  0  0  0  0  0  0  0  0  0  0
    7.2020   41.2280   30.9520 C   0  0  0  0  0  0  0  0  0  0  0  0
    8.9670   39.6490   27.6380 O   0  0  0  0  0  0  0  0  0  0  0  0
    8.3430   39.4740   29.7000 C   0  0  0  0  0  0  0  0  0  0  0  0
    7.3530   40.3500   32.0770 C   0  0  0  0  0  0  0  0  0  0  0  0
  1  3  1  0
  2 11  1  0
  3  6  1  0
  4  2  1  0
  5  9  1  0
  6  7  1  0
  8  7  2  0
  9 12  1  0
 10  2  2  0
 11  5  1  0
 11  3  2  0
 12  6  1  0
M  END
$$$$

     RDKit          3D

 13 14  0  0  0  0  0  0  0  0999 V2000
    9.4910   40.2730   27.3400 C   0  0  0  0  0  0  0  0  0  0  0  0
    7.7790   37.0600   30.8840 O   0  0  0  0  0  0  0  0  0  0  0  0
    8.3510   38.4600   30.8500 C   0  0  0  0  0  0  0  0  0  0  0  0
    8.0860   39.6010   30.1230 C   0  0  0  0  0  0  0  0  0  0  0  0
    9.2470   41.5570   29.3890 C   0  0  0  0  0  0  0  0  0  0  0  0
    9.0510   37.8990   29.1600 C   0  0  0  0  0  0  0  0  0  0  0  0
   10.4320   40.8190   29.6330 C   0  0  0  0  0  0  0  0  0  0  0  0
   10.1800   39.4890   28.3090 C   0  0  0  0  0  0  0  0  0  0  0  0
    7.7370   38.6220   31.9570 O   0  0  0  0  0  0  0  0  0  0  0  0
    7.4610   39.9410   28.7990 C   0  0  0  0  0  0  0  0  0  0  0  0
    9.7170   40.4210   30.1550 C   0  0  0  0  0  0  0  0  0  0  0  0
    8.3980   40.5690   28.0670 C   0  0  0  0  0  0  0  0  0  0  0  0
    9.6290   38.2670   28.2140 C   0  0  0  0  0  0  0  0  0  0  0  0
  1 12  1  0
  3  2  1  0
  3  9  1  0
  4 10  1  0
  4 11  1  0
  4  3  1  0
  6  3  1  0
  7  5  1  0
  7 11  1  0
  8  1  1  0
  8  7  1  0
 12 10  1  0
 13  8  1  0
 13  6  2  0
M  END
$$$$

     RDKit          3D

 12 14  0  0  0  0  0  0  0  0999 V2000
    9.5790   38.2300   27.6690 O   0  0  0  0  0  0  0  0  0  0  0  0
    9.5330   36.4140   28.4460 S   0  0  0  0  0  0  0  0  0  0  0  0
    8.3860   40.9680   27.2640 C   0  0  0  0  0  0  0  0  0  0  0  0
   10.1960   39.1620   30.4530 C   0  0  0  0  0  0  0  0  0  0  0  0
    8.1550   38.9640   31.7580 C   0  0  0  0  0  0  0  0  0  0  0  0
    8.6820   40.9090   28.7880 C   0  0  0  0  0  0  0  0  0  0  0  0
    9.0660   39.8100   29.7250 C   0  0  0  0  0  0  0  0  0  0  0  0
    8.1470   40.1100   30.6920 C   0  0  0  0  0  0  0  0  0  0  0  0
    8.4440   39.7850   27.0680 N   0  0  0  0  0  0  0  0  0  0  0  0
    9.7130   38.7950   31.9360 C   0  0  0  0  0  0  0  0  0  0  0  0
    9.0750   39.0290   28.6320 C   0  0  0  0  0  0  0  0  0  0  0  0
    8.8580   39.5030   32.8410 N   0  0  0  0  0  0  0  0  0  0  0  0
  1  2  1  0
  1 11  1  0
  3  6  1  0
  5  8  1  0
  5 10  1  0
  5 12  1  0
  7  6  1  0
  7  4  1  0
  7  8  1  0
  9  3  1  0
  9 11  2  0
 10  4  1  0
 10 12  1  0
 11  7  1  0
M  END
$$$$

     RDKit          3D

 13 13  0  0  0  0  0  0  0  0999 V2000
   10.9730   41.4500   31.6400 C   0  0  0  0  0  0  0  0  0  0  0  0
    6.8120   36.2870   29.4270 O   0  0  0  0  0  0  0  0  0  0  0  0
    8.9200   35.6010   28.6110 C   0  0  0  0  0  0  0  0  0  0  0  0
    8.1510   36.6130   29.4340 N   0  0  0  0  0  0  0  0  0  0  0  0
    8.5180   37.7340   29.9890 C   0  0  0  0  0  0  0  0  0  0  0  0
    9.9550   38.4250   29.8440 C   0  0  0  0  0  0  0  0  0  0  0  0
    9.5700   40.2640   31.5330 C   0  0  0  0  0  0  0  0  0  0  0  0
    7.1870   37.9460   31.7030 O   0  0  0  0  0  0  0  0  0  0  0  0
    7.9300   38.5080   31.0800 C   0  0  0  0  0  0  0  0  0  0  0  0
   10.2610   39.8090   30.2460 C   0  0  0  0  0  0  0  0  0  0  0  0
   12.0540   40.5850   31.8640 O   0  0  0  0  0  0  0  0  0  0  0  0
    9.9790   40.6720   29.1380 O   0  0  0  0  0  0  0  0  0  0  0  0
    8.1230   39.9720   31.3210 O   0  0  0  0  0  0  0  0  0  0  0  0
  1 11  1  0
  2  4  1  0
  3  4  1  0
  5  4  1  0
  5  9  1  0
  6  5  1  0
  6 10  1  0
  7  1  1  0
  9 13  1  0
  9  8  2  0
 10 12  1  0
 10  7  1  0
 13  7  1  0
M  END
$$$$

     RDKit          3D

 10 10  0  0  0  0  0  0  0  0999 V2000
    6.5550   39.5080   29.8040 C   0  0  0  0  0  0  0  0  0  0  0  0
    7.4200   37.7580   31.2550 C   0  0  0  0  0  0  0  0  0  0  0  0
    6.9900   39.1190   31.3660 C   0  0  0  0  0  0  0  0  0  0  0  0
    9.0000   38.4130   29.6960 C   0  0  0  0  0  0  0  0  0  0  0  0
    7.2210   40.1130   29.0570 C   0  0  0  0  0  0  0  0  0  0  0  0
    8.4450   38.7130   31.3910 C   0  0  0  0  0  0  0  0  0  0  0  0
    9.1970   40.0440   31.0430 C   0  0  0  0  0  0  0  0  0  0  0  0
    9.4510   39.9770   27.9350 O   0  0  0  0  0  0  0  0  0  0  0  0
    8.3740   39.4750   28.8430 C   0  0  0  0  0  0  0  0  0  0  0  0
    9.1570   38.3800   32.3880 C   0  0  0  0  0  0  0  0  0  0  0  0
  2  3  1  0
  2  6  1  0
  3  1  1  0
  3  6  1  0
  5  1  1  0
  6 10  1  0
  7  6  1  0
  8  9  1  0
  9  5  1  0
  9  4  1  0
M  END
$$$$

     RDKit          3D

 10 11  0  0  0  0  0  0  0  0999 V2000
    9.9090   39.1930   27.8620 C   0  0  0  0  0  0  0  0  0  0  0  0
    9.4110   38.8000   31.1980 C   0  0  0  0  0  0  0  0  0  0  0  0
   10.4460   40.4740   32.4790 C   0  0  0  0  0  0  0  0  0  0  0  0
    9.5260   38.6600   29.9150 C   0  0  0  0  0  0  0  0  0  0  0  0
   10.7910   40.5860   30.0650 C   0  0  0  0  0  0  0  0  0  0  0  0
   10.8140   40.8480   31.3220 N   0  0  0  0  0  0  0  0  0  0  0  0
   10.2590   39.5530   29.1100 C   0  0  0  0  0  0  0  0  0  0  0  0
    9.6320   39.4770   32.3060 N   0  0  0  0  0  0  0  0  0  0  0  0
    8.8240   37.9260   28.9060 C   0  0  0  0  0  0  0  0  0  0  0  0
    9.2860   37.9280   27.8780 O   0  0  0  0  0  0  0  0  0  0  0  0
  1 10  1  0
  1  7  1  0
  2  8  2  0
  4  2  1  0
  5  6  2  0
  6  3  1  0
  7  4  2  0
  7  5  1  0
  8  3  1  0
  9  4  1  0
 10  9  1  0
M  END
$$$$

     RDKit          3D

 12 13  0  0  0  0  0  0  0  0999 V2000
    8.9360   37.8020   30.3840 C   0  0  0  0  0  0  0  0  0  0  0  0
    7.7920   37.2810   30.8350 C   0  0  0  0  0  0  0  0  0  0  0  0
   10.2590   39.8740   30.3260 O   0  0  0  0  0  0  0  0  0  0  0  0
   10.6070   41.1340   30.8290 C   0  0  0  0  0  0  0  0  0  0  0  0
    7.5420   34.1650   28.2650 Cl  0  0  0  0  0  0  0  0  0  0  0  0
    9.6900   37.2550   29.3400 C   0  0  0  0  0  0  0  0  0  0  0  0
    7.9880   35.5710   29.0890 C   0  0  0  0  0  0  0  0  0  0  0  0
    9.1970   36.1920   28.7070 C   0  0  0  0  0  0  0  0  0  0  0  0
    9.4860   38.9710   31.1030 C   0  0  0  0  0  0  0  0  0  0  0  0
   10.7000   40.9350   32.3440 C   0  0  0  0  0  0  0  0  0  0  0  0
    9.6870   39.3630   32.7460 S   0  0  0  0  0  0  0  0  0  0  0  0
    7.3040   36.0680   30.1020 C   0  0  0  0  0  0  0  0  0  0  0  0
  1  2  1  0
  3  4  1  0
  3  9  1  0
  4 10  1  0
  5  7  1  0
  6  1  2  0
  7 12  1  0
  8  7  2  0
  8  6  1  0
  9  1  1  0
  9 11  1  0
 10 11  1  0
 12  2  2  0
M  END
$$$$

     RDKit          3D

 18 20  0  0  0  0  0  0  0  0999 V2000
    9.6300   37.6030   27.7890 C   0  0  0  0  0  0  0  0  0  0  0  0
    6.2480   40.1660   31.5890 C   0  0  0  0  0  0  0  0  0  0  0  0
    7.6110   41.8690   29.9360 O   0  0  0  0  0  0  0  0  0  0  0  0
    8.6130   41.2500   29.5550 C   0  0  0  0  0  0  0  0  0  0  0  0
    7.7700   39.3310   32.0360 C   0  0  0  0  0  0  0  0  0  0  0  0
    9.5600   39.9580   27.6210 C   0  0  0  0  0  0  0  0  0  0  0  0
    6.0040   40.7490   32.7280 C   0  0  0  0  0  0  0  0  0  0  0  0
    7.1790   39.2680   31.3200 C   0  0  0  0  0  0  0  0  0  0  0  0
   10.0670   38.7350   27.1520 C   0  0  0  0  0  0  0  0  0  0  0  0
    8.8020   37.5470   28.8050 C   0  0  0  0  0  0  0  0  0  0  0  0
    7.1750   40.5690   33.7470 C   0  0  0  0  0  0  0  0  0  0  0  0
    9.6880   41.0610   26.9050 O   0  0  0  0  0  0  0  0  0  0  0  0
    8.2760   38.7530   29.4110 C   0  0  0  0  0  0  0  0  0  0  0  0
    7.5540   38.1600   30.3100 N   0  0  0  0  0  0  0  0  0  0  0  0
    7.4440   36.6670   29.8830 C   0  0  0  0  0  0  0  0  0  0  0  0
    8.7810   39.9840   28.8870 C   0  0  0  0  0  0  0  0  0  0  0  0
    8.0950   39.6330   33.5780 C   0  0  0  0  0  0  0  0  0  0  0  0
    9.9190   41.4280   30.4240 O   0  0  0  0  0  0  0  0  0  0  0  0
  1 10  1  0
  2  7  1  0
  4  3  2  0
  4 18  1  0
  5 17  1  0
  6 16  2  0
  7 11  1  0
  8  2  1  0
  8  5  1  0
  9  6  1  0
  9  1  2  0
 10 13  2  0
 10 15  1  0
 12  6  1  0
 13 14  1  0
 14  8  1  0
 15 14  1  0
 16 13  1  0
 16  4  1  0
 17 11  1  0
M  END
$$$$

     RDKit          3D

 14 16  0  0  0  0  0  0  0  0999 V2000
    8.3960   40.1020   29.8190 N   0  0  0  0  0  0  0  0  0  0  0  0
    8.9070   42.4320   30.7310 C   0  0  0  0  0  0  0  0  0  0  0  0
    6.8420   37.2380   30.2210 C   0  0  0  0  0  0  0  0  0  0  0  0
   10.0570   38.9280   30.8330 C   0  0  0  0  0  0  0  0  0  0  0  0
    8.8340   38.8110   30.1630 N   0  0  0  0  0  0  0  0  0  0  0  0
    6.7470   35.0690   29.0400 C   0  0  0  0  0  0  0  0  0  0  0  0
    9.4030   40.9930   30.2940 C   0  0  0  0  0  0  0  0  0  0  0  0
    8.5210   36.5920   29.0060 C   0  0  0  0  0  0  0  0  0  0  0  0
    9.6320   40.0150   31.6940 C   0  0  0  0  0  0  0  0  0  0  0  0
    9.8100   43.0520   31.7390 C   0  0  0  0  0  0  0  0  0  0  0  0
    9.2220   42.9970   33.1580 O   0  0  0  0  0  0  0  0  0  0  0  0
    7.9360   35.7010   28.9040 C   0  0  0  0  0  0  0  0  0  0  0  0
    6.3640   36.0060   29.9520 C   0  0  0  0  0  0  0  0  0  0  0  0
    7.9420   37.7040   30.1190 C   0  0  0  0  0  0  0  0  0  0  0  0
  1  5  1  0
  1  7  1  0
  2 10  1  0
  4  9  1  0
  5  4  1  0
  7  2  1  0
  7  9  1  0
 10 11  1  0
 12  8  1  0
 12  6  1  0
 12 13  1  0
 13  6  1  0
 13  3  1  0
 14  8  1  0
 14  5  1  0
 14  3  1  0
M  END
$$$$

     RDKit          3D

 11 12  0  0  0  0  0  0  0  0999 V2000
    9.5960   40.5210   27.3410 O   0  0  0  0  0  0  0  0  0  0  0  0
    7.6670   39.4650   29.4180 C   0  0  0  0  0  0  0  0  0  0  0  0
    8.4760   39.5600   27.1580 C   0  0  0  0  0  0  0  0  0  0  0  0
    6.9400   37.5860   30.4170 F   0  0  0  0  0  0  0  0  0  0  0  0
    8.5360   38.5490   28.5330 C   0  0  0  0  0  0  0  0  0  0  0  0
    6.1530   39.4880   30.9740 F   0  0  0  0  0  0  0  0  0  0  0  0
    8.0440   38.9280   31.5740 F   0  0  0  0  0  0  0  0  0  0  0  0
    7.1070   38.7330   30.6780 C   0  0  0  0  0  0  0  0  0  0  0  0
    7.4700   40.1730   28.3160 C   0  0  0  0  0  0  0  0  0  0  0  0
    7.7940   40.9430   29.5810 C   0  0  0  0  0  0  0  0  0  0  0  0
    9.2530   37.8150   28.2200 O   0  0  0  0  0  0  0  0  0  0  0  0
  2 10  1  0
  2  8  1  0
  3  1  1  0
  3  9  1  0
  3  5  1  0
  4  8  1  0
  5  2  1  0
  8  6  1  0
  8  7  1  0
  9  2  1  0
  9 10  1  0
 11  5  2  0
M  END
$$$$

     RDKit          3D

 12 13  0  0  0  0  0  0  0  0999 V2000
    8.7690   39.0170   30.3870 C   0  0  0  0  0  0  0  0  0  0  0  0
    7.5870   40.7200   30.0800 C   0  0  0  0  0  0  0  0  0  0  0  0
    8.1890   39.1180   31.3630 O   0  0  0  0  0  0  0  0  0  0  0  0
    8.8630   36.7440   29.0080 C   0  0  0  0  0  0  0  0  0  0  0  0
    8.1190   41.0860   28.7260 C   0  0  0  0  0  0  0  0  0  0  0  0
    8.4030   39.1060   28.2050 C   0  0  0  0  0  0  0  0  0  0  0  0
    8.8540   34.5110   28.1620 C   0  0  0  0  0  0  0  0  0  0  0  0
    8.3980   40.5320   27.2610 S   0  0  0  0  0  0  0  0  0  0  0  0
    9.0020   37.8000   28.4870 C   0  0  0  0  0  0  0  0  0  0  0  0
    9.5910   38.3930   29.8170 N   0  0  0  0  0  0  0  0  0  0  0  0
    8.1660   35.5600   28.8770 C   0  0  0  0  0  0  0  0  0  0  0  0
    8.9050   39.1580   29.4260 C   0  0  0  0  0  0  0  0  0  0  0  0
  1  3  2  0
  5  2  1  0
  6  8  1  0
  6  9  1  0
  6 12  1  0
  7 11  1  0
  8  5  1  0
  9  4  1  0
  9 10  1  0
 10  1  1  0
 11  4  1  0
 12 10  1  0
 12  1  1  0
M  END
$$$$

     RDKit          3D

 21 22  0  0  0  0  0  0  0  0999 V2000
    8.4810   37.6710   28.5320 C   0  0  0  0  0  0  0  0  0  0  0  0
    7.3680   40.9870   27.4730 C   0  0  0  0  0  0  0  0  0  0  0  0
    7.9910   39.4090   33.6190 O   0  0  0  0  0  0  0  0  0  0  0  0
    6.9960   36.4120   30.3880 C   0  0  0  0  0  0  0  0  0  0  0  0
    9.4890   38.0990   27.7680 O   0  0  0  0  0  0  0  0  0  0  0  0
    9.1710   37.8910   32.5140 N   0  0  0  0  0  0  0  0  0  0  0  0
   11.0900   41.3960   28.7270 O   0  0  0  0  0  0  0  0  0  0  0  0
    7.2710   35.6570   29.2720 C   0  0  0  0  0  0  0  0  0  0  0  0
   10.2460   41.2770   29.6180 C   0  0  0  0  0  0  0  0  0  0  0  0
    8.0280   38.6710   32.6140 C   0  0  0  0  0  0  0  0  0  0  0  0
    7.8480   38.4790   29.4320 C   0  0  0  0  0  0  0  0  0  0  0  0
   10.2220   41.9400   30.5930 O   0  0  0  0  0  0  0  0  0  0  0  0
    9.6960   37.4240   33.8040 C   0  0  0  0  0  0  0  0  0  0  0  0
    8.5790   40.2860   27.7810 C   0  0  0  0  0  0  0  0  0  0  0  0
    8.1500   36.3360   28.3380 C   0  0  0  0  0  0  0  0  0  0  0  0
    7.1020   38.4110   31.6630 N   0  0  0  0  0  0  0  0  0  0  0  0
    7.3570   37.7210   30.5410 C   0  0  0  0  0  0  0  0  0  0  0  0
    7.9890   40.7310   30.3810 O   0  0  0  0  0  0  0  0  0  0  0  0
    9.0180   40.0820   29.3820 C   0  0  0  0  0  0  0  0  0  0  0  0
    8.8210   41.4070   27.4900 C   0  0  0  0  0  0  0  0  0  0  0  0
    9.6020   39.4250   27.0960 C   0  0  0  0  0  0  0  0  0  0  0  0
  1 11  1  0
  2 20  1  0
  2 14  1  0
  4 17  2  0
  5  1  1  0
  6 10  1  0
  6 13  1  0
  7  9  2  0
  8  4  1  0
  9 12  1  0
 10  3  2  0
 11 17  1  0
 14 19  1  0
 15  1  2  0
 15  8  1  0
 16 10  1  0
 17 16  1  0
 19  9  1  0
 19 18  1  0
 20 14  1  0
 21  5  1  0
 21 14  1  0
M  END
$$$$

     RDKit          3D

 11 11  0  0  0  0  0  0  0  0999 V2000
    8.0800   36.0430   29.6680 C   0  0  0  0  0  0  0  0  0  0  0  0
    8.8580   40.1970   29.8500 C   0  0  0  0  0  0  0  0  0  0  0  0
    9.4860   39.1140   28.7060 C   0  0  0  0  0  0  0  0  0  0  0  0
    8.1500   37.5700   29.9750 C   0  0  0  0  0  0  0  0  0  0  0  0
    7.5710   38.4390   30.7610 C   0  0  0  0  0  0  0  0  0  0  0  0
    9.1080   35.6090   28.5100 C   0  0  0  0  0  0  0  0  0  0  0  0
    9.2270   41.5670   29.9150 O   0  0  0  0  0  0  0  0  0  0  0  0
    9.9610   40.1410   27.6210 C   0  0  0  0  0  0  0  0  0  0  0  0
    9.0530   38.0970   28.7710 C   0  0  0  0  0  0  0  0  0  0  0  0
    8.9230   41.1110   27.4540 O   0  0  0  0  0  0  0  0  0  0  0  0
    8.0100   39.7310   30.7020 C   0  0  0  0  0  0  0  0  0  0  0  0
  1  4  1  0
  2  7  1  0
  2 11  1  0
  3  9  1  0
  3  2  2  0
  4  5  1  0
  6  1  1  0
  8  3  1  0
  9  4  2  0
 10  8  1  0
 11  5  2  0
M  END
$$$$

     RDKit          3D

 13 15  0  0  0  0  0  0  0  0999 V2000
    9.1000   38.0810   30.6100 O   0  0  0  0  0  0  0  0  0  0  0  0
    8.5970   34.5470   28.2480 C   0  0  0  0  0  0  0  0  0  0  0  0
    8.9730   37.4520   29.6790 C   0  0  0  0  0  0  0  0  0  0  0  0
    9.4710   35.7330   27.7700 C   0  0  0  0  0  0  0  0  0  0  0  0
    8.2740   36.0830   29.5640 C   0  0  0  0  0  0  0  0  0  0  0  0
   10.0430   39.1020   27.5130 C   0  0  0  0  0  0  0  0  0  0  0  0
    7.5450   33.2310   27.3480 C   0  0  0  0  0  0  0  0  0  0  0  0
   10.3210   39.8600   30.9080 O   0  0  0  0  0  0  0  0  0  0  0  0
    9.4040   37.0190   28.5210 C   0  0  0  0  0  0  0  0  0  0  0  0
    9.7880   37.6740   27.9650 C   0  0  0  0  0  0  0  0  0  0  0  0
    7.7890   34.5860   29.0870 C   0  0  0  0  0  0  0  0  0  0  0  0
    9.8120   39.2270   29.9730 C   0  0  0  0  0  0  0  0  0  0  0  0
   10.1460   39.7480   28.5810 C   0  0  0  0  0  0  0  0  0  0  0  0
  2  7  1  0
  2 11  1  0
  3  1  1  0
  4  2  1  0
  5 11  1  0
  5  3  1  0
  6 10  1  0
  6 13  1  0
  9  4  1  0
  9  5  1  0
  9  3  1  0
 10  9  1  0
 12  1  1  0
 12  8  2  0
 13 12  1  0
M  END
$$$$

     RDKit          3D

 12 12  0  0  0  0  0  0  0  0999 V2000
    8.7970   40.7520   26.7970 O   0  0  0  0  0  0  0  0  0  0  0  0
    9.5490   39.6000   28.7120 C   0  0  0  0  0  0  0  0  0  0  0  0
    7.0410   38.9970   29.6420 C   0  0  0  0  0  0  0  0  0  0  0  0
    8.9620   39.1000   30.0230 C   0  0  0  0  0  0  0  0  0  0  0  0
    8.8770   38.5000   27.5580 C   0  0  0  0  0  0  0  0  0  0  0  0
    8.3630   39.7560   27.7710 C   0  0  0  0  0  0  0  0  0  0  0  0
    7.2070   40.4660   28.9010 C   0  0  0  0  0  0  0  0  0  0  0  0
    9.9610   39.5860   29.3030 C   0  0  0  0  0  0  0  0  0  0  0  0
    7.8090   38.0100   29.8450 C   0  0  0  0  0  0  0  0  0  0  0  0
    8.0470   37.1020   30.6740 S   0  0  0  0  0  0  0  0  0  0  0  0
    8.6430   37.4660   28.9040 C   0  0  0  0  0  0  0  0  0  0  0  0
    9.4060   37.4190   28.3670 C   0  0  0  0  0  0  0  0  0  0  0  0
  2  8  1  0
  3  9  1  0
  5  6  1  0
  5 12  1  0
  6  1  1  0
  6  2  1  0
  6  7  1  0
  7  3  1  0
  8  4  1  0
  9 10  2  0
 11  9  1  0
 12 11  1  0
M  END
$$$$

     RDKit          3D

 12 11  0  0  0  0  0  0  0  0999 V2000
    9.4920   36.9760   28.3190 C   0  0  0  0  0  0  0  0  0  0  0  0
    8.4420   36.2050   30.2450 N   0  0  0  0  0  0  0  0  0  0  0  0
    8.5990   38.5070   30.1580 C   0  0  0  0  0  0  0  0  0  0  0  0
   10.2100   37.6700   27.7320 O   0  0  0  0  0  0  0  0  0  0  0  0
    8.6500   37.3830   29.5630 C   0  0  0  0  0  0  0  0  0  0  0  0
    9.1850   37.7000   32.6050 O   0  0  0  0  0  0  0  0  0  0  0  0
    9.8500   38.7020   32.1400 C   0  0  0  0  0  0  0  0  0  0  0  0
    9.8000   38.9540   30.8100 N   0  0  0  0  0  0  0  0  0  0  0  0
    9.1190   35.7540   27.8360 O   0  0  0  0  0  0  0  0  0  0  0  0
    8.6480   39.1090   28.8580 O   0  0  0  0  0  0  0  0  0  0  0  0
   10.5640   39.4640   32.9470 N   0  0  0  0  0  0  0  0  0  0  0  0
   10.5760   40.9730   32.4760 C   0  0  0  0  0  0  0  0  0  0  0  0
  1  5  1  0
  3 10  1  0
  3  8  1  0
  4  1  2  0
  5  3  1  0
  5  2  1  0
  7  6  2  0
  7 11  1  0
  8  7  1  0
  9  1  1  0
 12 11  1  0
M  END
$$$$

     RDKit          3D

 20 21  0  0  0  0  0  0  0  0999 V2000
   11.2960   41.0710   31.5780 O   0  0  0  0  0  0  0  0  0  0  0  0
    7.3630   37.1800   31.3400 Cl  0  0  0  0  0  0  0  0  0  0  0  0
    8.5690   42.1640   30.1410 C   0  0  0  0  0  0  0  0  0  0  0  0
    9.1850   40.0840   31.0210 C   0  0  0  0  0  0  0  0  0  0  0  0
    9.2690   35.4080   27.6790 C   0  0  0  0  0  0  0  0  0  0  0  0
    9.2340   36.8970   27.8990 C   0  0  0  0  0  0  0  0  0  0  0  0
    7.8930   36.3850   29.8600 C   0  0  0  0  0  0  0  0  0  0  0  0
    8.5490   34.3940   28.1250 C   0  0  0  0  0  0  0  0  0  0  0  0
    6.3480   42.8220   31.4910 O   0  0  0  0  0  0  0  0  0  0  0  0
    9.6190   39.3690   29.8870 C   0  0  0  0  0  0  0  0  0  0  0  0
   10.1120   40.8670   32.0100 C   0  0  0  0  0  0  0  0  0  0  0  0
    7.2610   35.2560   29.8150 C   0  0  0  0  0  0  0  0  0  0  0  0
    7.6330   43.1390   31.1210 C   0  0  0  0  0  0  0  0  0  0  0  0
    7.4770   34.1600   28.9600 C   0  0  0  0  0  0  0  0  0  0  0  0
    8.6890   37.1870   28.9950 C   0  0  0  0  0  0  0  0  0  0  0  0
    8.5150   38.5890   29.3930 N   0  0  0  0  0  0  0  0  0  0  0  0
   10.0210   40.4970   28.9650 C   0  0  0  0  0  0  0  0  0  0  0  0
   10.2180   40.4810   33.4720 C   0  0  0  0  0  0  0  0  0  0  0  0
    9.8500   41.7580   29.5100 O   0  0  0  0  0  0  0  0  0  0  0  0
    8.1540   40.8460   31.0640 O   0  0  0  0  0  0  0  0  0  0  0  0
  1 11  1  0
  3 20  1  0
  3 13  1  0
  4 20  1  0
  4 11  1  0
  5  6  1  0
  5  8  2  0
  6 15  1  0
  7  2  1  0
  8 14  1  0
 10 16  1  0
 10  4  1  0
 11 18  1  0
 12  7  1  0
 13  9  1  0
 14 12  1  0
 15 16  1  0
 15  7  1  0
 17 19  1  0
 17 10  1  0
 19  3  1  0
M  END
$$$$

     RDKit          3D

 21 23  0  0  0  0  0  0  0  0999 V2000
    7.5880   36.0730   29.7190 N   0  0  0  0  0  0  0  0  0  0  0  0
    8.2830   41.1490   31.6570 C   0  0  0  0  0  0  0  0  0  0  0  0
    9.0590   41.9130   32.7720 C   0  0  0  0  0  0  0  0  0  0  0  0
    6.0700   33.8910   29.2740 N   0  0  0  0  0  0  0  0  0  0  0  0
    7.3210   33.7400   28.6840 C   0  0  0  0  0  0  0  0  0  0  0  0
    7.6600   32.7510   28.0500 N   0  0  0  0  0  0  0  0  0  0  0  0
    9.3360   40.6470   30.6990 C   0  0  0  0  0  0  0  0  0  0  0  0
   10.1600   43.9390   32.7250 O   0  0  0  0  0  0  0  0  0  0  0  0
    8.0330   35.0400   28.8000 C   0  0  0  0  0  0  0  0  0  0  0  0
    7.8930   38.3850   31.3910 O   0  0  0  0  0  0  0  0  0  0  0  0
    9.4720   36.6040   28.6430 C   0  0  0  0  0  0  0  0  0  0  0  0
    9.6210   43.0750   30.5930 C   0  0  0  0  0  0  0  0  0  0  0  0
    9.9450   41.7300   29.9840 N   0  0  0  0  0  0  0  0  0  0  0  0
    8.9420   39.6040   29.7750 C   0  0  0  0  0  0  0  0  0  0  0  0
    9.6910   39.5850   28.5610 N   0  0  0  0  0  0  0  0  0  0  0  0
   10.6450   41.7100   28.9170 C   0  0  0  0  0  0  0  0  0  0  0  0
   10.3690   40.6520   28.0480 C   0  0  0  0  0  0  0  0  0  0  0  0
    9.7240   43.0450   32.0970 C   0  0  0  0  0  0  0  0  0  0  0  0
    8.4050   38.3160   30.3220 C   0  0  0  0  0  0  0  0  0  0  0  0
    9.1790   35.3310   28.2130 C   0  0  0  0  0  0  0  0  0  0  0  0
    8.5130   37.0530   29.5410 C   0  0  0  0  0  0  0  0  0  0  0  0
  2  3  1  0
  5  9  1  0
  5  4  1  0
  6  5  2  0
  7  2  1  0
  9  1  2  0
 11 21  1  0
 12 18  1  0
 13 16  1  0
 13 12  1  0
 13  7  1  0
 14 19  1  0
 14  7  1  0
 15 14  2  0
 17 15  1  0
 17 16  1  0
 18  8  2  0
 18  3  1  0
 19 10  2  0
 20 11  2  0
 20  9  1  0
 21  1  2  0
 21 19  1  0
M  END
$$$$
