
     RDKit          3D

 22 24  0  0  0  0  0  0  0  0999 V2000
    4.3440  -19.8040  -46.3480 C   0  0  0  0  0  0  0  0  0  0  0  0
    7.9820  -19.1320  -48.6050 C   0  0  0  0  0  0  0  0  0  0  0  0
    2.3450  -19.1730  -51.1680 C   0  0  0  0  0  0  0  0  0  0  0  0
    8.3560  -19.4850  -44.4030 C   0  0  0  0  0  0  0  0  0  0  0  0
    1.2780  -18.8660  -52.0370 C   0  0  0  0  0  0  0  0  0  0  0  0
    1.8010  -19.4480  -49.6340 S   0  0  0  0  0  0  0  0  0  0  0  0
    5.5200  -19.5460  -48.3370 C   0  0  0  0  0  0  0  0  0  0  0  0
   -0.0030  -19.5000  -51.6550 C   0  0  0  0  0  0  0  0  0  0  0  0
    6.6970  -19.3240  -49.1500 C   0  0  0  0  0  0  0  0  0  0  0  0
   10.8250  -19.3670  -44.3340 C   0  0  0  0  0  0  0  0  0  0  0  0
    1.8020  -20.1090  -46.3760 C   0  0  0  0  0  0  0  0  0  0  0  0
    9.5020  -19.3730  -45.1360 C   0  0  0  0  0  0  0  0  0  0  0  0
    9.3380  -19.2780  -46.5050 C   0  0  0  0  0  0  0  0  0  0  0  0
    6.9800  -19.4920  -46.3990 C   0  0  0  0  0  0  0  0  0  0  0  0
    4.2750  -19.6520  -48.8880 N   0  0  0  0  0  0  0  0  0  0  0  0
    5.6140  -19.6180  -46.9950 C   0  0  0  0  0  0  0  0  0  0  0  0
    3.1510  -19.7230  -48.4100 C   0  0  0  0  0  0  0  0  0  0  0  0
    3.1890  -19.8670  -47.0720 N   0  0  0  0  0  0  0  0  0  0  0  0
   12.1340  -19.5250  -45.0900 C   0  0  0  0  0  0  0  0  0  0  0  0
    8.1080  -19.2830  -47.1330 C   0  0  0  0  0  0  0  0  0  0  0  0
    4.2970  -19.9310  -45.1020 O   0  0  0  0  0  0  0  0  0  0  0  0
    7.1520  -19.5300  -45.1520 C   0  0  0  0  0  0  0  0  0  0  0  0
  1 21  2  0
  2 20  1  0
  3  6  1  0
  5  8  1  0
  5  3  1  0
  6 17  1  0
  9  2  2  0
  9  7  1  0
 12  4  1  0
 12 10  1  0
 13 12  2  0
 14 22  1  0
 15 17  2  0
 15  7  2  0
 16  7  1  0
 16 14  1  0
 16  1  1  0
 17 18  1  0
 18 11  1  0
 18  1  1  0
 19 10  1  0
 20 13  1  0
 20 14  2  0
 22  4  2  0
M  END
$$$$

     RDKit          3D

 17 20  0  0  0  0  0  0  0  0999 V2000
    5.3930  -19.7460  -45.5660 O   0  0  0  0  0  0  0  0  0  0  0  0
    2.3540  -19.3720  -49.5510 C   0  0  0  0  0  0  0  0  0  0  0  0
    8.8130  -19.1290  -44.6600 C   0  0  0  0  0  0  0  0  0  0  0  0
    3.2870  -19.6790  -50.4000 N   0  0  0  0  0  0  0  0  0  0  0  0
   10.1630  -18.9170  -44.5590 N   0  0  0  0  0  0  0  0  0  0  0  0
    5.8780  -19.7130  -46.7100 C   0  0  0  0  0  0  0  0  0  0  0  0
    5.5990  -19.7220  -49.0070 C   0  0  0  0  0  0  0  0  0  0  0  0
    3.9060  -19.5120  -47.7550 N   0  0  0  0  0  0  0  0  0  0  0  0
    8.3840  -19.3300  -45.9080 C   0  0  0  0  0  0  0  0  0  0  0  0
    4.3770  -19.8590  -49.9640 C   0  0  0  0  0  0  0  0  0  0  0  0
    9.1010  -19.2910  -46.9710 C   0  0  0  0  0  0  0  0  0  0  0  0
   10.4210  -19.1530  -47.0250 C   0  0  0  0  0  0  0  0  0  0  0  0
    8.2200  -19.5760  -47.8510 O   0  0  0  0  0  0  0  0  0  0  0  0
    5.1480  -19.7630  -47.7650 C   0  0  0  0  0  0  0  0  0  0  0  0
   10.8470  -19.0120  -45.6680 C   0  0  0  0  0  0  0  0  0  0  0  0
    2.8450  -19.3220  -48.3690 C   0  0  0  0  0  0  0  0  0  0  0  0
    7.3520  -19.5900  -46.8300 C   0  0  0  0  0  0  0  0  0  0  0  0
  2 16  1  0
  3  5  1  0
  4 10  1  0
  4  2  1  0
  6  1  2  0
  7 14  1  0
  9  3  2  0
 10  7  1  0
 11 12  1  0
 11 17  1  0
 11  9  1  0
 12 15  1  0
 13 11  1  0
 13 17  1  0
 14  8  2  0
 14  6  1  0
 15  5  2  0
 16  8  1  0
 17  6  1  0
 17  9  1  0
M  END
$$$$

     RDKit          3D

 18 19  0  0  0  0  0  0  0  0999 V2000
    7.0520  -19.2750  -47.7760 C   0  0  0  0  0  0  0  0  0  0  0  0
    3.1320  -19.7560  -48.5680 C   0  0  0  0  0  0  0  0  0  0  0  0
   -1.3390  -21.2240  -49.4050 N   0  0  0  0  0  0  0  0  0  0  0  0
    7.4700  -18.9870  -49.1380 C   0  0  0  0  0  0  0  0  0  0  0  0
    7.8840  -19.2130  -46.7250 C   0  0  0  0  0  0  0  0  0  0  0  0
   -0.4490  -21.1630  -48.4210 C   0  0  0  0  0  0  0  0  0  0  0  0
    4.7490  -19.5270  -48.4870 C   0  0  0  0  0  0  0  0  0  0  0  0
    0.7320  -20.4320  -48.5340 C   0  0  0  0  0  0  0  0  0  0  0  0
    6.5590  -19.0450  -50.1650 C   0  0  0  0  0  0  0  0  0  0  0  0
    0.1730  -19.7870  -50.6600 C   0  0  0  0  0  0  0  0  0  0  0  0
    5.2140  -19.2970  -49.7630 C   0  0  0  0  0  0  0  0  0  0  0  0
    5.7900  -19.6100  -45.9120 C   0  0  0  0  0  0  0  0  0  0  0  0
    5.7540  -19.4910  -47.3930 C   0  0  0  0  0  0  0  0  0  0  0  0
    7.0880  -19.4170  -45.5820 N   0  0  0  0  0  0  0  0  0  0  0  0
    0.6370  -18.9400  -51.3860 O   0  0  0  0  0  0  0  0  0  0  0  0
    1.9150  -19.9730  -49.1090 C   0  0  0  0  0  0  0  0  0  0  0  0
   -0.9210  -20.2990  -50.5140 O   0  0  0  0  0  0  0  0  0  0  0  0
    4.8500  -19.8490  -45.1740 O   0  0  0  0  0  0  0  0  0  0  0  0
  1 13  1  0
  1  5  2  0
  2  7  2  0
  3  6  1  0
  4  1  1  0
  5 14  1  0
  8  6  2  0
  9 11  1  0
  9  4  2  0
 10 17  1  0
 11  7  1  0
 12 14  2  0
 12 18  2  0
 13  7  1  0
 13 12  1  0
 15 10  2  0
 16  2  2  0
 16  8  2  0
 17  3  1  0
M  END
$$$$

     RDKit          3D

 14 16  0  0  0  0  0  0  0  0999 V2000
    7.1720  -19.3150  -47.2860 C   0  0  0  0  0  0  0  0  0  0  0  0
    3.1560  -19.8300  -46.5350 C   0  0  0  0  0  0  0  0  0  0  0  0
    3.4390  -19.5890  -47.9460 C   0  0  0  0  0  0  0  0  0  0  0  0
    7.6320  -19.2810  -46.0130 N   0  0  0  0  0  0  0  0  0  0  0  0
    6.5330  -19.4650  -45.1770 N   0  0  0  0  0  0  0  0  0  0  0  0
    1.8690  -19.9070  -46.0820 N   0  0  0  0  0  0  0  0  0  0  0  0
    4.7550  -19.4060  -48.2970 C   0  0  0  0  0  0  0  0  0  0  0  0
    4.0400  -19.0060  -50.6250 C   0  0  0  0  0  0  0  0  0  0  0  0
    2.3750  -19.4060  -48.9120 C   0  0  0  0  0  0  0  0  0  0  0  0
    5.3770  -19.5920  -45.9450 C   0  0  0  0  0  0  0  0  0  0  0  0
    4.0920  -19.7330  -45.5430 N   0  0  0  0  0  0  0  0  0  0  0  0
    2.6510  -19.1840  -50.2420 C   0  0  0  0  0  0  0  0  0  0  0  0
    5.7640  -19.4300  -47.3200 C   0  0  0  0  0  0  0  0  0  0  0  0
    5.0420  -19.2040  -49.6610 C   0  0  0  0  0  0  0  0  0  0  0  0
  1  4  2  0
  2  6  1  0
  2 11  2  0
  3  2  1  0
  4  5  1  0
  7  3  1  0
  7 13  1  0
  8 12  2  0
  8 14  1  0
  9  3  2  0
 10 11  2  0
 10  5  2  0
 12  9  1  0
 13  1  1  0
 13 10  1  0
 14  7  2  0
M  END
$$$$

     RDKit          3D

 11 12  0  0  0  0  0  0  0  0999 V2000
    7.7900  -19.0830  -46.9280 C   0  0  0  0  0  0  0  0  0  0  0  0
    6.5720  -19.5860  -45.7830 C   0  0  0  0  0  0  0  0  0  0  0  0
    4.9330  -19.1570  -47.4840 O   0  0  0  0  0  0  0  0  0  0  0  0
    7.1590  -18.8630  -48.0250 C   0  0  0  0  0  0  0  0  0  0  0  0
   10.5850  -19.2110  -46.3180 S   0  0  0  0  0  0  0  0  0  0  0  0
    9.3800  -19.1080  -47.5170 N   0  0  0  0  0  0  0  0  0  0  0  0
    8.0450  -19.3830  -45.7670 C   0  0  0  0  0  0  0  0  0  0  0  0
    5.3720  -19.4560  -46.2260 C   0  0  0  0  0  0  0  0  0  0  0  0
    9.3720  -19.3400  -45.2360 C   0  0  0  0  0  0  0  0  0  0  0  0
    9.7960  -19.3290  -43.7490 N   0  0  0  0  0  0  0  0  0  0  0  0
    5.7480  -18.5330  -48.2130 C   0  0  0  0  0  0  0  0  0  0  0  0
  1  7  1  0
  2  7  2  0
  3  8  1  0
  4  1  1  0
  5  9  1  0
  6  1  2  0
  6  5  1  0
  7  9  1  0
  8  2  2  0
  9 10  1  0
 11  4  1  0
 11  3  1  0
M  END
$$$$

     RDKit          3D

 18 21  0  0  0  0  0  0  0  0999 V2000
    9.2980  -19.0930  -47.2200 C   0  0  0  0  0  0  0  0  0  0  0  0
    3.9480  -19.6360  -51.4670 C   0  0  0  0  0  0  0  0  0  0  0  0
    4.8290  -19.6880  -50.3890 C   0  0  0  0  0  0  0  0  0  0  0  0
    4.4860  -19.5450  -48.9560 C   0  0  0  0  0  0  0  0  0  0  0  0
    3.5050  -19.7730  -46.3980 C   0  0  0  0  0  0  0  0  0  0  0  0
    7.1170  -18.4270  -48.8730 O   0  0  0  0  0  0  0  0  0  0  0  0
    4.3080  -20.1020  -45.5500 O   0  0  0  0  0  0  0  0  0  0  0  0
    6.6650  -18.9110  -47.6650 C   0  0  0  0  0  0  0  0  0  0  0  0
    7.9030  -19.3880  -45.3440 C   0  0  0  0  0  0  0  0  0  0  0  0
    4.8080  -19.9080  -46.6130 C   0  0  0  0  0  0  0  0  0  0  0  0
    2.6640  -19.4410  -47.5720 C   0  0  0  0  0  0  0  0  0  0  0  0
    5.3320  -19.5330  -47.8110 C   0  0  0  0  0  0  0  0  0  0  0  0
    7.8880  -19.2750  -46.8340 C   0  0  0  0  0  0  0  0  0  0  0  0
    2.6150  -19.3370  -51.0810 C   0  0  0  0  0  0  0  0  0  0  0  0
    2.2050  -19.2310  -49.8570 C   0  0  0  0  0  0  0  0  0  0  0  0
    9.3340  -19.3840  -45.0190 C   0  0  0  0  0  0  0  0  0  0  0  0
   10.1400  -19.1490  -46.0850 C   0  0  0  0  0  0  0  0  0  0  0  0
    3.0580  -19.3950  -48.8180 C   0  0  0  0  0  0  0  0  0  0  0  0
  1 13  2  0
  1 17  1  0
  2 14  2  0
  2  3  1  0
  3  4  2  0
  4 18  1  0
  4 12  1  0
  5 11  1  0
  5  7  1  0
  8  6  1  0
  8 13  1  0
  9 16  2  0
 10  5  1  0
 10  7  1  0
 12  8  1  0
 12 10  1  0
 13  9  1  0
 14 15  1  0
 15 18  2  0
 17 16  1  0
 18 11  1  0
M  END
$$$$

     RDKit          3D

  6  6  0  0  0  0  0  0  0  0999 V2000
    4.4090  -19.2370  -48.4710 C   0  0  0  0  0  0  0  0  0  0  0  0
    5.1740  -19.7500  -46.3600 C   0  0  0  0  0  0  0  0  0  0  0  0
    5.1480  -19.9760  -45.1510 O   0  0  0  0  0  0  0  0  0  0  0  0
    6.6960  -20.0500  -47.2220 S   0  0  0  0  0  0  0  0  0  0  0  0
    4.4490  -18.8370  -47.1000 C   0  0  0  0  0  0  0  0  0  0  0  0
    5.7170  -19.9470  -48.7340 C   0  0  0  0  0  0  0  0  0  0  0  0
  1  5  1  0
  2  3  2  0
  4  2  1  0
  5  2  1  0
  6  1  1  0
  6  4  1  0
M  END
$$$$

     RDKit          3D

 24 25  0  0  0  0  0  0  0  0999 V2000
    4.4070  -18.7690  -50.4570 C   0  0  0  0  0  0  0  0  0  0  0  0
    6.4270  -19.3370  -45.8560 C   0  0  0  0  0  0  0  0  0  0  0  0
    6.1010  -19.2790  -47.2310 C   0  0  0  0  0  0  0  0  0  0  0  0
   10.4170  -19.5560  -47.8430 F   0  0  0  0  0  0  0  0  0  0  0  0
   -0.8300  -22.9500  -45.6660 C   0  0  0  0  0  0  0  0  0  0  0  0
   -0.1780  -21.0040  -46.8390 C   0  0  0  0  0  0  0  0  0  0  0  0
    5.0730  -19.2680  -48.1660 C   0  0  0  0  0  0  0  0  0  0  0  0
   -0.0840  -21.9050  -45.7560 O   0  0  0  0  0  0  0  0  0  0  0  0
    9.2810  -19.4440  -47.2800 C   0  0  0  0  0  0  0  0  0  0  0  0
    7.7370  -19.3350  -45.3800 C   0  0  0  0  0  0  0  0  0  0  0  0
    7.1820  -19.0880  -48.0060 C   0  0  0  0  0  0  0  0  0  0  0  0
    3.1050  -18.9020  -50.0600 C   0  0  0  0  0  0  0  0  0  0  0  0
    8.3380  -19.3110  -48.3060 C   0  0  0  0  0  0  0  0  0  0  0  0
   11.3390  -19.8920  -45.3400 O   0  0  0  0  0  0  0  0  0  0  0  0
    3.6770  -19.4130  -45.4370 O   0  0  0  0  0  0  0  0  0  0  0  0
    3.6580  -19.4690  -47.8420 C   0  0  0  0  0  0  0  0  0  0  0  0
    1.9820  -20.3940  -46.2950 O   0  0  0  0  0  0  0  0  0  0  0  0
    2.6830  -19.2140  -48.8120 C   0  0  0  0  0  0  0  0  0  0  0  0
    3.1990  -19.7410  -46.5000 C   0  0  0  0  0  0  0  0  0  0  0  0
    5.4350  -18.9760  -49.4940 C   0  0  0  0  0  0  0  0  0  0  0  0
   10.2060  -19.6280  -44.9680 C   0  0  0  0  0  0  0  0  0  0  0  0
    9.9050  -19.3130  -43.7690 N   0  0  0  0  0  0  0  0  0  0  0  0
    0.8890  -20.0530  -46.9190 C   0  0  0  0  0  0  0  0  0  0  0  0
    9.0030  -19.4420  -45.9000 C   0  0  0  0  0  0  0  0  0  0  0  0
  1 12  2  0
  1 20  1  0
  2 10  1  0
  3  2  2  0
  4  9  1  0
  6  8  1  0
  7 16  1  0
  7  3  1  0
  8  5  1  0
  9 24  2  0
 11  3  1  0
 12 18  1  0
 13 11  2  0
 13  9  1  0
 14 21  2  0
 16 19  1  0
 18 16  2  0
 19 17  1  0
 19 15  2  0
 20  7  2  0
 21 22  1  0
 23  6  1  0
 23 17  1  0
 24 10  1  0
 24 21  1  0
M  END
$$$$

     RDKit          3D

  2  1  0  0  0  0  0  0  0  0999 V2000
    5.4360  -19.8800  -45.4590 C   0  0  0  0  0  0  0  0  0  0  0  0
    7.0750  -19.4900  -45.3350 C   0  0  0  0  0  0  0  0  0  0  0  0
  1  2  1  0
M  END
$$$$

     RDKit          3D

 10 10  0  0  0  0  0  0  0  0999 V2000
    7.4360  -19.0760  -49.0730 C   0  0  0  0  0  0  0  0  0  0  0  0
    4.6660  -19.4250  -48.7090 C   0  0  0  0  0  0  0  0  0  0  0  0
    6.6440  -19.2280  -50.1120 C   0  0  0  0  0  0  0  0  0  0  0  0
    5.9530  -19.5850  -45.3560 N   0  0  0  0  0  0  0  0  0  0  0  0
    5.2480  -19.2850  -49.9940 C   0  0  0  0  0  0  0  0  0  0  0  0
    4.3530  -20.4460  -45.8110 O   0  0  0  0  0  0  0  0  0  0  0  0
    6.9500  -19.1920  -47.8380 C   0  0  0  0  0  0  0  0  0  0  0  0
    3.3430  -19.5270  -48.7370 N   0  0  0  0  0  0  0  0  0  0  0  0
    5.6520  -19.5110  -47.7300 C   0  0  0  0  0  0  0  0  0  0  0  0
    5.2800  -19.9140  -46.3480 C   0  0  0  0  0  0  0  0  0  0  0  0
  1  7  1  0
  2  9  1  0
  3  5  1  0
  3  1  2  0
  5  2  2  0
  7  9  2  0
  8  2  1  0
  9 10  1  0
 10  6  2  0
 10  4  1  0
M  END
$$$$

     RDKit          3D

 13 13  0  0  0  0  0  0  0  0999 V2000
    7.7900  -19.0490  -45.7690 N   0  0  0  0  0  0  0  0  0  0  0  0
    1.2700  -20.2650  -46.5690 N   0  0  0  0  0  0  0  0  0  0  0  0
    5.4870  -18.7800  -49.9590 C   0  0  0  0  0  0  0  0  0  0  0  0
    2.2200  -20.3520  -46.2510 C   0  0  0  0  0  0  0  0  0  0  0  0
    6.0490  -18.9990  -47.6260 C   0  0  0  0  0  0  0  0  0  0  0  0
    5.8660  -18.4680  -51.2830 F   0  0  0  0  0  0  0  0  0  0  0  0
    4.8000  -19.3010  -47.2810 C   0  0  0  0  0  0  0  0  0  0  0  0
    4.5440  -19.6610  -46.0410 N   0  0  0  0  0  0  0  0  0  0  0  0
    6.4430  -18.7120  -48.9380 C   0  0  0  0  0  0  0  0  0  0  0  0
    4.1610  -19.0490  -49.6190 C   0  0  0  0  0  0  0  0  0  0  0  0
    3.5040  -20.2870  -45.7590 N   0  0  0  0  0  0  0  0  0  0  0  0
    3.8390  -19.2910  -48.2670 C   0  0  0  0  0  0  0  0  0  0  0  0
    7.0200  -19.0900  -46.5570 C   0  0  0  0  0  0  0  0  0  0  0  0
  2  4  3  0
  3 10  2  0
  3  9  1  0
  4 11  1  0
  5  7  1  0
  5 13  1  0
  6  3  1  0
  7  8  1  0
  8 11  1  0
  9  5  2  0
 10 12  1  0
 12  7  2  0
 13  1  3  0
M  END
$$$$

     RDKit          3D

 22 23  0  0  0  0  0  0  0  0999 V2000
    3.6470  -18.4870  -53.8350 Cl  0  0  0  0  0  0  0  0  0  0  0  0
   11.2020  -18.6150  -42.9520 C   0  0  0  0  0  0  0  0  0  0  0  0
    2.6890  -19.1820  -51.5770 C   0  0  0  0  0  0  0  0  0  0  0  0
    8.4070  -19.4930  -44.8520 C   0  0  0  0  0  0  0  0  0  0  0  0
    1.2490  -19.7750  -48.8190 C   0  0  0  0  0  0  0  0  0  0  0  0
    6.3140  -19.0180  -47.6550 C   0  0  0  0  0  0  0  0  0  0  0  0
    3.7480  -20.5280  -45.7090 N   0  0  0  0  0  0  0  0  0  0  0  0
    4.9180  -19.9710  -46.0780 C   0  0  0  0  0  0  0  0  0  0  0  0
    3.9670  -19.2730  -49.5470 C   0  0  0  0  0  0  0  0  0  0  0  0
    4.9590  -18.9170  -51.6590 C   0  0  0  0  0  0  0  0  0  0  0  0
    5.1100  -19.4590  -47.3240 C   0  0  0  0  0  0  0  0  0  0  0  0
    3.7980  -19.0730  -52.3210 C   0  0  0  0  0  0  0  0  0  0  0  0
    5.9970  -19.9210  -45.2650 N   0  0  0  0  0  0  0  0  0  0  0  0
    4.0180  -19.2720  -48.1250 N   0  0  0  0  0  0  0  0  0  0  0  0
    4.9760  -19.1150  -50.2790 C   0  0  0  0  0  0  0  0  0  0  0  0
    9.7020  -19.2640  -45.1100 C   0  0  0  0  0  0  0  0  0  0  0  0
    2.8980  -19.4240  -50.2080 C   0  0  0  0  0  0  0  0  0  0  0  0
    7.2090  -19.5230  -45.6330 C   0  0  0  0  0  0  0  0  0  0  0  0
    7.3960  -19.0700  -46.7970 N   0  0  0  0  0  0  0  0  0  0  0  0
   12.0810  -18.2390  -41.6710 C   0  0  0  0  0  0  0  0  0  0  0  0
    1.9780  -19.6170  -49.4150 O   0  0  0  0  0  0  0  0  0  0  0  0
   10.4850  -18.8550  -43.7920 C   0  0  0  0  0  0  0  0  0  0  0  0
  1 12  1  0
  2 20  1  0
  3 17  1  0
  6 11  2  0
  6 19  1  0
  8  7  1  0
  8 13  2  0
  9 14  1  0
 10 15  2  0
 11  8  1  0
 12 10  1  0
 12  3  2  0
 14 11  1  0
 15  9  1  0
 16  4  1  0
 16 22  1  0
 17  9  2  0
 17 21  1  0
 18 13  2  0
 18  4  1  0
 19 18  2  0
 21  5  1  0
 22  2  3  0
M  END
$$$$

     RDKit          3D

 20 22  0  0  0  0  0  0  0  0999 V2000
    4.9080  -19.3270  -48.4620 S   0  0  0  0  0  0  0  0  0  0  0  0
    8.5380  -18.9840  -46.5820 C   0  0  0  0  0  0  0  0  0  0  0  0
    8.4390  -19.1580  -45.1720 C   0  0  0  0  0  0  0  0  0  0  0  0
    0.9790  -19.9880  -49.7040 N   0  0  0  0  0  0  0  0  0  0  0  0
   -1.8720  -22.3310  -47.4860 O   0  0  0  0  0  0  0  0  0  0  0  0
    3.5770  -19.5520  -47.4420 C   0  0  0  0  0  0  0  0  0  0  0  0
   10.8920  -18.8210  -45.1250 C   0  0  0  0  0  0  0  0  0  0  0  0
    2.2170  -19.8000  -47.8430 C   0  0  0  0  0  0  0  0  0  0  0  0
    7.3890  -19.0860  -47.3650 N   0  0  0  0  0  0  0  0  0  0  0  0
    9.5840  -19.1170  -44.4160 C   0  0  0  0  0  0  0  0  0  0  0  0
   10.9010  -18.4960  -46.3500 C   0  0  0  0  0  0  0  0  0  0  0  0
    3.9610  -19.5270  -46.0820 N   0  0  0  0  0  0  0  0  0  0  0  0
    5.3230  -19.5040  -45.9520 N   0  0  0  0  0  0  0  0  0  0  0  0
   -1.2640  -20.7620  -49.2160 C   0  0  0  0  0  0  0  0  0  0  0  0
   -2.3600  -21.6660  -48.6700 C   0  0  0  0  0  0  0  0  0  0  0  0
    2.0260  -19.5920  -49.2610 N   0  0  0  0  0  0  0  0  0  0  0  0
    1.1130  -20.4910  -47.3370 C   0  0  0  0  0  0  0  0  0  0  0  0
    0.2430  -20.5330  -48.6160 C   0  0  0  0  0  0  0  0  0  0  0  0
    6.0820  -19.3100  -47.1150 C   0  0  0  0  0  0  0  0  0  0  0  0
    9.7320  -18.7300  -47.1510 C   0  0  0  0  0  0  0  0  0  0  0  0
  1  6  1  0
  1 19  1  0
  2  3  1  0
  3 10  2  0
  4 16  1  0
  4 18  2  0
  6 12  2  0
  7 10  1  0
  8  6  1  0
  8 17  1  0
  9 19  1  0
  9  2  1  0
 11  7  2  0
 12 13  1  0
 14 15  1  0
 14 18  1  0
 15  5  1  0
 16  8  2  0
 18 17  1  0
 19 13  2  0
 20  2  2  0
 20 11  1  0
M  END
$$$$

     RDKit          3D

 14 15  0  0  0  0  0  0  0  0999 V2000
    5.0890  -19.6120  -45.7430 O   0  0  0  0  0  0  0  0  0  0  0  0
    9.0400  -19.0960  -45.3440 C   0  0  0  0  0  0  0  0  0  0  0  0
    5.4660  -19.6800  -48.0090 N   0  0  0  0  0  0  0  0  0  0  0  0
    3.7800  -19.4340  -49.6410 C   0  0  0  0  0  0  0  0  0  0  0  0
    2.4900  -19.3240  -49.6710 N   0  0  0  0  0  0  0  0  0  0  0  0
    8.1970  -19.0320  -47.3740 C   0  0  0  0  0  0  0  0  0  0  0  0
    7.6540  -19.4230  -45.2470 N   0  0  0  0  0  0  0  0  0  0  0  0
    9.3170  -18.8430  -46.6540 C   0  0  0  0  0  0  0  0  0  0  0  0
    3.2010  -19.5880  -47.6440 O   0  0  0  0  0  0  0  0  0  0  0  0
    2.1620  -19.4750  -48.3420 N   0  0  0  0  0  0  0  0  0  0  0  0
    5.8580  -19.5690  -46.6680 C   0  0  0  0  0  0  0  0  0  0  0  0
    7.1950  -19.3570  -46.4980 C   0  0  0  0  0  0  0  0  0  0  0  0
    4.6510  -19.4020  -50.5280 N   0  0  0  0  0  0  0  0  0  0  0  0
    4.2420  -19.6080  -48.3270 C   0  0  0  0  0  0  0  0  0  0  0  0
  2  7  1  0
  3 11  1  0
  4 14  1  0
  5  4  2  0
  5 10  1  0
  6  8  2  0
  6 12  1  0
  8  2  1  0
 10  9  1  0
 11 12  1  0
 11  1  2  0
 12  7  2  0
 13  4  1  0
 14  3  2  3
 14  9  1  0
M  END
$$$$

     RDKit          3D

 19 21  0  0  0  0  0  0  0  0999 V2000
    7.3640  -19.0100  -48.0650 C   0  0  0  0  0  0  0  0  0  0  0  0
    6.0580  -18.9680  -48.6190 N   0  0  0  0  0  0  0  0  0  0  0  0
    1.6820  -19.8610  -46.8520 N   0  0  0  0  0  0  0  0  0  0  0  0
   11.7220  -19.3600  -45.2130 N   0  0  0  0  0  0  0  0  0  0  0  0
    7.1870  -19.2200  -46.6400 C   0  0  0  0  0  0  0  0  0  0  0  0
    9.5850  -19.4760  -45.7940 C   0  0  0  0  0  0  0  0  0  0  0  0
    3.8420  -19.4310  -47.8190 N   0  0  0  0  0  0  0  0  0  0  0  0
    3.6800  -19.9280  -45.4870 N   0  0  0  0  0  0  0  0  0  0  0  0
   11.5220  -18.5050  -46.4420 C   0  0  0  0  0  0  0  0  0  0  0  0
    5.1760  -19.2660  -47.7080 C   0  0  0  0  0  0  0  0  0  0  0  0
   10.3880  -19.3430  -44.5510 C   0  0  0  0  0  0  0  0  0  0  0  0
   10.0980  -18.3830  -46.6610 O   0  0  0  0  0  0  0  0  0  0  0  0
    5.0190  -19.7780  -45.3130 C   0  0  0  0  0  0  0  0  0  0  0  0
    5.8270  -19.4620  -46.4270 C   0  0  0  0  0  0  0  0  0  0  0  0
    8.0760  -19.2580  -45.5040 C   0  0  0  0  0  0  0  0  0  0  0  0
   12.8630  -18.8660  -44.5010 C   0  0  0  0  0  0  0  0  0  0  0  0
    5.7570  -18.7270  -49.9940 C   0  0  0  0  0  0  0  0  0  0  0  0
    8.5850  -18.7510  -48.9070 C   0  0  0  0  0  0  0  0  0  0  0  0
    3.0770  -19.6780  -46.7180 C   0  0  0  0  0  0  0  0  0  0  0  0
  1  5  2  0
  2  1  1  0
  2 10  1  0
  3 19  1  0
  4 11  1  0
  4 16  1  0
  5 14  1  0
  5 15  1  0
  6 15  1  0
  6 11  1  0
  7 10  2  0
  7 19  2  0
  8 13  1  0
  9  4  1  0
 10 14  1  0
 12  9  1  0
 12  6  1  0
 14 13  2  0
 17  2  1  0
 18  1  1  0
 19  8  2  0
M  END
$$$$

     RDKit          3D

  9  9  0  0  0  0  0  0  0  0999 V2000
    5.2440  -19.5270  -49.6220 C   0  0  0  0  0  0  0  0  0  0  0  0
    3.8420  -19.5380  -47.7700 C   0  0  0  0  0  0  0  0  0  0  0  0
    3.5830  -19.8330  -45.8500 F   0  0  0  0  0  0  0  0  0  0  0  0
    6.1790  -19.2930  -47.4610 C   0  0  0  0  0  0  0  0  0  0  0  0
    7.2090  -19.1410  -46.7370 N   0  0  0  0  0  0  0  0  0  0  0  0
    4.9650  -19.3170  -46.9650 C   0  0  0  0  0  0  0  0  0  0  0  0
    4.0010  -19.6130  -49.1250 N   0  0  0  0  0  0  0  0  0  0  0  0
    6.2920  -19.3780  -48.7670 N   0  0  0  0  0  0  0  0  0  0  0  0
    4.5860  -19.5480  -45.5980 C   0  0  0  0  0  0  0  0  0  0  0  0
  1  7  2  0
  1  8  1  0
  2  6  2  0
  3  9  1  0
  4  6  1  0
  4  5  1  0
  6  9  1  0
  7  2  1  0
  8  4  2  0
M  END
$$$$

     RDKit          3D

 15 16  0  0  0  0  0  0  0  0999 V2000
    8.7590  -19.2790  -44.5210 O   0  0  0  0  0  0  0  0  0  0  0  0
    3.1550  -19.2650  -47.9260 C   0  0  0  0  0  0  0  0  0  0  0  0
    5.5390  -19.1260  -47.9010 N   0  0  0  0  0  0  0  0  0  0  0  0
    7.8180  -19.2070  -48.6140 C   0  0  0  0  0  0  0  0  0  0  0  0
    2.7710  -20.2040  -45.8000 N   0  0  0  0  0  0  0  0  0  0  0  0
    9.2170  -19.2190  -48.1510 C   0  0  0  0  0  0  0  0  0  0  0  0
    0.9690  -19.8770  -47.2680 O   0  0  0  0  0  0  0  0  0  0  0  0
   10.1590  -18.9260  -44.1970 C   0  0  0  0  0  0  0  0  0  0  0  0
    6.8310  -19.2030  -47.5600 C   0  0  0  0  0  0  0  0  0  0  0  0
    4.3740  -19.4590  -47.3290 C   0  0  0  0  0  0  0  0  0  0  0  0
    8.5000  -19.2470  -45.8890 C   0  0  0  0  0  0  0  0  0  0  0  0
    2.1640  -19.7110  -47.0670 C   0  0  0  0  0  0  0  0  0  0  0  0
    7.1440  -19.2680  -46.2220 C   0  0  0  0  0  0  0  0  0  0  0  0
    9.5510  -19.2120  -46.8100 C   0  0  0  0  0  0  0  0  0  0  0  0
    4.1190  -19.9900  -46.0480 C   0  0  0  0  0  0  0  0  0  0  0  0
  1  8  1  0
  2 10  2  0
  2 12  1  0
  3  9  1  0
  3 10  1  0
  4  6  2  0
  4  9  1  0
  6 14  1  0
  7 12  2  0
  9 13  2  0
 10 15  1  0
 11  1  1  0
 12  5  2  0
 13 11  1  0
 14 11  2  0
 15  5  1  0
M  END
$$$$

     RDKit          3D

 12 12  0  0  0  0  0  0  0  0999 V2000
    4.0860  -19.7350  -48.0130 C   0  0  0  0  0  0  0  0  0  0  0  0
    5.4890  -19.7700  -46.1580 C   0  0  0  0  0  0  0  0  0  0  0  0
    6.3110  -19.2280  -48.3660 C   0  0  0  0  0  0  0  0  0  0  0  0
    8.6950  -18.9070  -48.9410 C   0  0  0  0  0  0  0  0  0  0  0  0
    4.2870  -20.1590  -46.6570 N   0  0  0  0  0  0  0  0  0  0  0  0
    5.0030  -19.4320  -48.7610 N   0  0  0  0  0  0  0  0  0  0  0  0
    5.3950  -19.7010  -45.0020 O   0  0  0  0  0  0  0  0  0  0  0  0
    7.2780  -18.8700  -49.3630 O   0  0  0  0  0  0  0  0  0  0  0  0
    6.6510  -19.3140  -46.9230 C   0  0  0  0  0  0  0  0  0  0  0  0
    2.0410  -19.2560  -49.0380 C   0  0  0  0  0  0  0  0  0  0  0  0
    2.0130  -19.6640  -47.7190 C   0  0  0  0  0  0  0  0  0  0  0  0
    2.7830  -19.1430  -47.9460 C   0  0  0  0  0  0  0  0  0  0  0  0
  1 12  1  0
  1  5  2  0
  2  7  2  0
  3  9  1  0
  5  2  2  0
  6  3  2  0
  6  1  2  0
  8  4  1  0
  8  3  1  0
  9  2  1  0
 10 12  1  0
 12 11  1  0
M  END
$$$$

     RDKit          3D

 22 22  0  0  0  0  0  0  0  0999 V2000
    4.9400  -19.5560  -46.6030 C   0  0  0  0  0  0  0  0  0  0  0  0
    3.0920  -19.6560  -52.1380 C   0  0  0  0  0  0  0  0  0  0  0  0
   10.2360  -18.9520  -43.9350 C   0  0  0  0  0  0  0  0  0  0  0  0
   11.7680  -21.4410  -44.5930 N   0  0  0  0  0  0  0  0  0  0  0  0
    2.0680  -18.9630  -52.9480 C   0  0  0  0  0  0  0  0  0  0  0  0
    7.3510  -19.3090  -46.6650 C   0  0  0  0  0  0  0  0  0  0  0  0
   12.3780  -20.0560  -44.7440 C   0  0  0  0  0  0  0  0  0  0  0  0
    4.9190  -19.6580  -45.3520 O   0  0  0  0  0  0  0  0  0  0  0  0
    2.5790  -19.7400  -46.8330 C   0  0  0  0  0  0  0  0  0  0  0  0
    3.7340  -19.4960  -47.3810 C   0  0  0  0  0  0  0  0  0  0  0  0
    3.8800  -19.2560  -48.7800 C   0  0  0  0  0  0  0  0  0  0  0  0
    1.5260  -19.7380  -49.0380 C   0  0  0  0  0  0  0  0  0  0  0  0
    9.2270  -19.3230  -44.8390 O   0  0  0  0  0  0  0  0  0  0  0  0
    2.8130  -19.4370  -49.6290 C   0  0  0  0  0  0  0  0  0  0  0  0
   11.6400  -19.0970  -43.8620 C   0  0  0  0  0  0  0  0  0  0  0  0
    6.1440  -19.4050  -47.2130 N   0  0  0  0  0  0  0  0  0  0  0  0
    9.6300  -18.8620  -46.0730 C   0  0  0  0  0  0  0  0  0  0  0  0
    1.1840  -19.6630  -53.4700 O   0  0  0  0  0  0  0  0  0  0  0  0
    1.4210  -19.9310  -47.5960 C   0  0  0  0  0  0  0  0  0  0  0  0
    2.5550  -19.0140  -50.9260 O   0  0  0  0  0  0  0  0  0  0  0  0
    2.0830  -17.7410  -53.2060 O   0  0  0  0  0  0  0  0  0  0  0  0
    8.6060  -19.0440  -47.1490 C   0  0  0  0  0  0  0  0  0  0  0  0
  1  8  2  0
  2 20  1  0
  3 15  2  3
  5  2  1  0
  7  4  1  0
  7 15  1  0
 10  9  1  0
 10  1  1  0
 11 10  2  0
 12 19  1  0
 13  3  1  0
 14 12  2  0
 14 11  1  0
 16  6  2  3
 16  1  1  0
 17 13  1  0
 18  5  2  0
 19  9  2  0
 20 14  1  0
 21  5  1  0
 22  6  1  0
 22 17  1  0
M  END
$$$$

     RDKit          3D

 18 19  0  0  0  0  0  0  0  0999 V2000
    3.5440  -18.9530  -49.6270 C   0  0  0  0  0  0  0  0  0  0  0  0
   11.7500  -18.5480  -44.4430 O   0  0  0  0  0  0  0  0  0  0  0  0
    3.1710  -20.0520  -45.3640 O   0  0  0  0  0  0  0  0  0  0  0  0
    5.6640  -19.5020  -46.6340 N   0  0  0  0  0  0  0  0  0  0  0  0
    1.4160  -19.5040  -48.7790 C   0  0  0  0  0  0  0  0  0  0  0  0
   10.6040  -18.7900  -45.1200 C   0  0  0  0  0  0  0  0  0  0  0  0
    9.2860  -18.8970  -47.1180 C   0  0  0  0  0  0  0  0  0  0  0  0
    8.0930  -19.0990  -46.4320 C   0  0  0  0  0  0  0  0  0  0  0  0
    6.7670  -19.1340  -47.2290 N   0  0  0  0  0  0  0  0  0  0  0  0
    8.1990  -19.2370  -45.0160 C   0  0  0  0  0  0  0  0  0  0  0  0
    2.2100  -19.0670  -49.9310 C   0  0  0  0  0  0  0  0  0  0  0  0
    4.4160  -19.4880  -47.2940 C   0  0  0  0  0  0  0  0  0  0  0  0
    4.3890  -19.1680  -48.6810 C   0  0  0  0  0  0  0  0  0  0  0  0
    0.8890  -20.4520  -46.6800 N   0  0  0  0  0  0  0  0  0  0  0  0
    1.9040  -19.8260  -47.4480 C   0  0  0  0  0  0  0  0  0  0  0  0
   10.4930  -18.6970  -46.5020 C   0  0  0  0  0  0  0  0  0  0  0  0
    3.1280  -19.8150  -46.6060 C   0  0  0  0  0  0  0  0  0  0  0  0
    9.4330  -19.1020  -44.3570 C   0  0  0  0  0  0  0  0  0  0  0  0
  1 13  2  0
  5 15  2  0
  6  2  1  0
  6 18  1  0
  7 16  1  0
  7  8  2  0
  8 10  1  0
  9  4  1  0
  9  8  1  0
 10 18  2  0
 11  1  1  0
 11  5  1  0
 12  4  2  3
 12 17  1  0
 13 12  1  0
 15 14  1  0
 15 17  1  0
 16  6  2  0
 17  3  2  0
M  END
$$$$
