
     RDKit          3D

 21 23  0  0  0  0  0  0  0  0999 V2000
    6.5790  -32.0160  -32.3220 N   0  0  0  0  0  0  0  0  0  0  0  0
   10.6990  -34.8660  -35.1480 C   0  0  0  0  0  0  0  0  0  0  0  0
    4.5890  -31.8400  -30.7690 C   0  0  0  0  0  0  0  0  0  0  0  0
    7.2670  -34.8530  -34.2850 C   0  0  0  0  0  0  0  0  0  0  0  0
    7.8490  -32.1710  -31.8810 N   0  0  0  0  0  0  0  0  0  0  0  0
    5.0970  -33.0840  -33.9900 C   0  0  0  0  0  0  0  0  0  0  0  0
   11.5640  -33.2200  -29.9950 C   0  0  0  0  0  0  0  0  0  0  0  0
    9.9100  -33.4920  -31.8380 C   0  0  0  0  0  0  0  0  0  0  0  0
    5.0260  -34.1680  -34.8510 C   0  0  0  0  0  0  0  0  0  0  0  0
   10.8420  -34.1600  -32.7160 C   0  0  0  0  0  0  0  0  0  0  0  0
    3.3780  -34.1920  -35.4260 Cl  0  0  0  0  0  0  0  0  0  0  0  0
   10.3540  -35.1120  -33.7310 O   0  0  0  0  0  0  0  0  0  0  0  0
   10.1950  -33.0920  -30.5030 C   0  0  0  0  0  0  0  0  0  0  0  0
    5.6300  -31.1320  -31.6990 C   0  0  0  0  0  0  0  0  0  0  0  0
    7.4140  -33.8050  -33.3830 C   0  0  0  0  0  0  0  0  0  0  0  0
   12.6070  -33.6050  -30.9000 C   0  0  0  0  0  0  0  0  0  0  0  0
   13.6010  -33.9500  -33.5540 Cl  0  0  0  0  0  0  0  0  0  0  0  0
   12.3070  -33.9930  -32.3550 C   0  0  0  0  0  0  0  0  0  0  0  0
    6.2230  -32.8790  -33.2200 C   0  0  0  0  0  0  0  0  0  0  0  0
    6.0960  -35.0700  -35.0160 C   0  0  0  0  0  0  0  0  0  0  0  0
    8.4300  -33.2970  -32.4170 C   0  0  0  0  0  0  0  0  0  0  0  0
  1  5  1  0
  1 14  1  0
  2 12  1  0
  4 15  1  0
  6 19  1  0
  8 13  2  0
  9  6  2  0
 10 18  2  0
 10  8  1  0
 11  9  1  0
 12 10  1  0
 13  7  1  0
 14  3  1  0
 15 19  2  0
 15 21  1  0
 16  7  2  0
 17 18  1  0
 18 16  1  0
 19  1  1  0
 20  9  1  0
 20  4  2  0
 21  5  2  0
 21  8  1  0
M  END
$$$$

     RDKit          3D

 26 29  0  0  0  0  0  0  0  0999 V2000
    7.4060  -36.2360  -35.7130 C   0  0  0  0  0  0  0  0  0  0  0  0
    7.7790  -32.5040  -32.0250 C   0  0  0  0  0  0  0  0  0  0  0  0
    6.4390  -30.7390  -32.5060 F   0  0  0  0  0  0  0  0  0  0  0  0
    9.3590  -33.7110  -33.6550 C   0  0  0  0  0  0  0  0  0  0  0  0
    8.8110  -35.9040  -35.8000 C   0  0  0  0  0  0  0  0  0  0  0  0
    4.8240  -34.1050  -38.3140 C   0  0  0  0  0  0  0  0  0  0  0  0
    6.7350  -35.8500  -34.4840 C   0  0  0  0  0  0  0  0  0  0  0  0
    6.5020  -31.7000  -31.7530 C   0  0  0  0  0  0  0  0  0  0  0  0
    5.3620  -35.5940  -34.9810 O   0  0  0  0  0  0  0  0  0  0  0  0
    6.6810  -35.4460  -36.7560 C   0  0  0  0  0  0  0  0  0  0  0  0
    6.1490  -34.3530  -38.7680 C   0  0  0  0  0  0  0  0  0  0  0  0
    9.3970  -34.7530  -34.9260 C   0  0  0  0  0  0  0  0  0  0  0  0
    8.0280  -33.4560  -33.1300 C   0  0  0  0  0  0  0  0  0  0  0  0
    7.1750  -35.0330  -38.0510 C   0  0  0  0  0  0  0  0  0  0  0  0
    8.2660  -35.1250  -38.4290 O   0  0  0  0  0  0  0  0  0  0  0  0
    8.8900  -32.4360  -31.1820 C   0  0  0  0  0  0  0  0  0  0  0  0
   10.0730  -33.0270  -31.3890 C   0  0  0  0  0  0  0  0  0  0  0  0
    5.4080  -32.4650  -31.9080 F   0  0  0  0  0  0  0  0  0  0  0  0
    4.4110  -34.5560  -36.9830 C   0  0  0  0  0  0  0  0  0  0  0  0
   11.6390  -34.5890  -34.2690 O   0  0  0  0  0  0  0  0  0  0  0  0
   10.9570  -36.7070  -34.5520 O   0  0  0  0  0  0  0  0  0  0  0  0
    7.1010  -34.4270  -33.8280 N   0  0  0  0  0  0  0  0  0  0  0  0
   10.7030  -35.4470  -34.5310 C   0  0  0  0  0  0  0  0  0  0  0  0
    6.7170  -31.2590  -30.5020 F   0  0  0  0  0  0  0  0  0  0  0  0
   10.3400  -33.7220  -32.5730 C   0  0  0  0  0  0  0  0  0  0  0  0
    5.4060  -35.1510  -36.2200 C   0  0  0  0  0  0  0  0  0  0  0  0
  1  5  1  0
  1  7  1  0
  2  8  1  0
  2 16  1  0
  3  8  1  0
  4 13  1  0
  4 25  1  0
  5 12  1  0
  6 19  1  0
  7  9  1  0
  7 22  1  0
  8 24  1  0
 10 14  1  0
 10 26  1  0
 10  1  1  0
 11  6  2  0
 11 14  1  0
 12 23  1  0
 12  4  1  0
 13  2  1  0
 15 14  2  0
 17 16  2  0
 18  8  1  0
 19 26  2  0
 21 23  2  0
 22 13  2  0
 23 20  1  0
 25 17  1  0
 26  9  1  0
M  END
$$$$

     RDKit          3D

 28 31  0  0  0  0  0  0  0  0999 V2000
    6.8390  -32.8530  -32.5930 C   0  0  0  0  0  0  0  0  0  0  0  0
   11.3760  -32.1870  -27.8370 O   0  0  0  0  0  0  0  0  0  0  0  0
   12.9100  -32.2690  -27.1020 C   0  0  0  0  0  0  0  0  0  0  0  0
   12.4760  -33.3040  -29.4880 O   0  0  0  0  0  0  0  0  0  0  0  0
    6.0450  -33.5030  -33.8580 C   0  0  0  0  0  0  0  0  0  0  0  0
    6.1560  -34.7360  -34.6720 C   0  0  0  0  0  0  0  0  0  0  0  0
   10.1960  -34.1730  -32.7770 N   0  0  0  0  0  0  0  0  0  0  0  0
    8.9280  -34.8930  -34.6970 C   0  0  0  0  0  0  0  0  0  0  0  0
    1.8860  -34.8550  -36.8110 C   0  0  0  0  0  0  0  0  0  0  0  0
    5.2250  -35.1740  -35.6040 C   0  0  0  0  0  0  0  0  0  0  0  0
   10.4090  -32.2460  -29.8120 N   0  0  0  0  0  0  0  0  0  0  0  0
    3.3260  -34.5300  -36.9550 N   0  0  0  0  0  0  0  0  0  0  0  0
    4.0860  -34.4130  -35.8600 C   0  0  0  0  0  0  0  0  0  0  0  0
   10.6710  -33.6990  -31.6520 N   0  0  0  0  0  0  0  0  0  0  0  0
    3.7760  -33.2780  -34.9470 C   0  0  0  0  0  0  0  0  0  0  0  0
    8.6680  -32.5120  -31.3730 C   0  0  0  0  0  0  0  0  0  0  0  0
   10.7380  -35.2530  -33.4350 C   0  0  0  0  0  0  0  0  0  0  0  0
    8.9430  -34.0370  -33.3300 C   0  0  0  0  0  0  0  0  0  0  0  0
    7.9170  -31.7080  -30.7990 N   0  0  0  0  0  0  0  0  0  0  0  0
    9.9700  -32.8780  -30.8700 C   0  0  0  0  0  0  0  0  0  0  0  0
    9.6920  -36.0890  -34.1290 C   0  0  0  0  0  0  0  0  0  0  0  0
    6.6010  -31.9660  -31.3660 C   0  0  0  0  0  0  0  0  0  0  0  0
   11.5180  -32.6250  -29.0660 C   0  0  0  0  0  0  0  0  0  0  0  0
    8.0890  -33.0960  -32.5020 C   0  0  0  0  0  0  0  0  0  0  0  0
    5.2560  -31.6630  -30.9120 C   0  0  0  0  0  0  0  0  0  0  0  0
   13.0660  -34.7960  -34.5710 N   0  0  0  0  0  0  0  0  0  0  0  0
   11.7890  -34.6630  -34.3220 C   0  0  0  0  0  0  0  0  0  0  0  0
    4.8430  -32.8340  -34.1260 C   0  0  0  0  0  0  0  0  0  0  0  0
  1 24  2  0
  1 22  1  0
  2  3  1  0
  4 23  2  0
  5  1  1  0
  6  5  2  0
  7 14  1  0
  8 21  1  0
 10  6  1  0
 11 23  1  0
 12  9  1  0
 12 13  1  0
 13 10  2  0
 13 15  1  0
 14 20  2  0
 15 28  2  0
 16 20  1  0
 16 19  2  0
 17 27  1  0
 17  7  1  0
 18  8  1  0
 18  7  1  0
 18 24  1  0
 20 11  1  0
 21 17  1  0
 22 25  1  0
 22 19  2  0
 23  2  1  0
 24 16  1  0
 26 27  2  0
 28  5  1  0
M  END
$$$$

     RDKit          3D

 23 25  0  0  0  0  0  0  0  0999 V2000
    7.6770  -35.6540  -34.4460 O   0  0  0  0  0  0  0  0  0  0  0  0
    9.9350  -32.2980  -30.2750 N   0  0  0  0  0  0  0  0  0  0  0  0
    8.7950  -32.1540  -30.8300 C   0  0  0  0  0  0  0  0  0  0  0  0
   10.1860  -34.3910  -31.9250 F   0  0  0  0  0  0  0  0  0  0  0  0
    5.8310  -34.4160  -37.9110 C   0  0  0  0  0  0  0  0  0  0  0  0
    7.1690  -34.6810  -33.8630 C   0  0  0  0  0  0  0  0  0  0  0  0
    8.0630  -31.3590  -30.3430 N   0  0  0  0  0  0  0  0  0  0  0  0
    6.1270  -34.7390  -36.5230 C   0  0  0  0  0  0  0  0  0  0  0  0
    3.8820  -34.1650  -35.8850 C   0  0  0  0  0  0  0  0  0  0  0  0
    5.8200  -34.1850  -34.1530 N   0  0  0  0  0  0  0  0  0  0  0  0
    9.5950  -33.7190  -33.9290 C   0  0  0  0  0  0  0  0  0  0  0  0
   12.5370  -34.9900  -34.3340 O   0  0  0  0  0  0  0  0  0  0  0  0
    4.7930  -33.4290  -38.0240 C   0  0  0  0  0  0  0  0  0  0  0  0
   11.6320  -34.6530  -33.4700 C   0  0  0  0  0  0  0  0  0  0  0  0
    8.2820  -32.9330  -32.0190 C   0  0  0  0  0  0  0  0  0  0  0  0
    5.6470  -33.9020  -39.2010 C   0  0  0  0  0  0  0  0  0  0  0  0
    3.7910  -33.4700  -37.0920 N   0  0  0  0  0  0  0  0  0  0  0  0
    7.0810  -32.2380  -32.1270 N   0  0  0  0  0  0  0  0  0  0  0  0
   10.4040  -34.8280  -32.4370 C   0  0  0  0  0  0  0  0  0  0  0  0
   10.6140  -33.7890  -34.3440 C   0  0  0  0  0  0  0  0  0  0  0  0
    8.3210  -33.7640  -33.2540 C   0  0  0  0  0  0  0  0  0  0  0  0
    6.9810  -31.3960  -31.1480 C   0  0  0  0  0  0  0  0  0  0  0  0
    5.1530  -34.2680  -35.4280 C   0  0  0  0  0  0  0  0  0  0  0  0
  1  6  2  0
  3  7  2  0
  3  2  1  0
  5 16  1  0
  5  8  1  0
  6 21  1  0
  8 23  1  0
  9 23  1  0
 10  6  1  0
 13 16  1  0
 13  5  1  0
 13 17  1  0
 14 12  1  0
 14 19  1  0
 15  3  1  0
 17  9  1  0
 18 15  2  0
 18 22  1  0
 19  4  1  0
 20 11  1  0
 20 14  1  0
 21 11  1  0
 21 15  1  0
 22  7  1  0
 23 10  2  3
M  END
$$$$

     RDKit          3D

 26 28  0  0  0  0  0  0  0  0999 V2000
   12.3660  -33.2480  -31.8800 C   0  0  0  0  0  0  0  0  0  0  0  0
    7.0020  -34.5800  -34.0330 N   0  0  0  0  0  0  0  0  0  0  0  0
   11.0040  -32.0980  -28.7010 C   0  0  0  0  0  0  0  0  0  0  0  0
    5.9490  -32.3790  -33.2740 S   0  0  0  0  0  0  0  0  0  0  0  0
   10.1180  -31.3130  -28.4450 O   0  0  0  0  0  0  0  0  0  0  0  0
    3.3410  -34.1250  -36.6990 O   0  0  0  0  0  0  0  0  0  0  0  0
   12.4340  -32.2560  -26.6200 N   0  0  0  0  0  0  0  0  0  0  0  0
    9.0730  -34.9440  -32.7370 C   0  0  0  0  0  0  0  0  0  0  0  0
    3.3280  -32.7510  -35.1940 O   0  0  0  0  0  0  0  0  0  0  0  0
   10.4490  -34.4270  -33.1360 C   0  0  0  0  0  0  0  0  0  0  0  0
   12.4290  -32.8180  -30.6180 C   0  0  0  0  0  0  0  0  0  0  0  0
    5.9000  -33.8190  -34.1730 C   0  0  0  0  0  0  0  0  0  0  0  0
   10.9920  -33.5730  -32.0810 C   0  0  0  0  0  0  0  0  0  0  0  0
    5.1480  -34.2630  -35.2390 C   0  0  0  0  0  0  0  0  0  0  0  0
    7.0010  -35.6050  -34.8170 C   0  0  0  0  0  0  0  0  0  0  0  0
   11.2340  -32.6240  -30.0590 C   0  0  0  0  0  0  0  0  0  0  0  0
   10.2630  -33.0400  -30.9490 O   0  0  0  0  0  0  0  0  0  0  0  0
    3.9170  -33.6810  -35.7410 C   0  0  0  0  0  0  0  0  0  0  0  0
   12.1670  -32.3220  -27.8440 C   0  0  0  0  0  0  0  0  0  0  0  0
   11.0830  -35.1160  -34.2940 C   0  0  0  0  0  0  0  0  0  0  0  0
    6.0490  -35.7180  -37.1600 C   0  0  0  0  0  0  0  0  0  0  0  0
   13.4980  -33.3450  -32.9530 C   0  0  0  0  0  0  0  0  0  0  0  0
    7.8130  -36.8550  -34.6610 C   0  0  0  0  0  0  0  0  0  0  0  0
    5.9730  -35.2550  -35.7990 C   0  0  0  0  0  0  0  0  0  0  0  0
    7.5790  -32.8400  -32.8050 C   0  0  0  0  0  0  0  0  0  0  0  0
    7.9390  -34.1140  -33.2070 C   0  0  0  0  0  0  0  0  0  0  0  0
  1 22  1  0
  1 11  1  0
  2 26  1  0
  3  5  2  0
  3 19  1  0
  4 25  1  0
  6 18  2  0
 10 20  1  0
 10  8  1  0
 11 16  1  0
 12  2  1  0
 12  4  1  0
 13 10  1  0
 13  1  1  0
 13 17  1  0
 14 12  2  0
 15 23  1  0
 15  2  1  0
 16  3  1  0
 17 16  1  0
 18 14  1  0
 18  9  1  0
 19  7  2  0
 21 24  1  0
 24 14  1  0
 24 15  2  0
 26 25  2  0
 26  8  1  0
M  END
$$$$

     RDKit          3D

 11 11  0  0  0  0  0  0  0  0999 V2000
    6.8740  -32.6600  -32.5380 C   0  0  0  0  0  0  0  0  0  0  0  0
    7.1110  -33.6800  -33.5150 C   0  0  0  0  0  0  0  0  0  0  0  0
    6.2880  -33.8600  -34.6200 C   0  0  0  0  0  0  0  0  0  0  0  0
    8.2380  -34.4230  -33.1570 C   0  0  0  0  0  0  0  0  0  0  0  0
    8.5210  -31.7640  -30.7160 C   0  0  0  0  0  0  0  0  0  0  0  0
    8.7840  -33.7070  -32.0870 N   0  0  0  0  0  0  0  0  0  0  0  0
    8.6580  -35.7260  -35.1750 C   0  0  0  0  0  0  0  0  0  0  0  0
    8.8150  -35.6760  -33.7350 C   0  0  0  0  0  0  0  0  0  0  0  0
   10.2360  -35.7620  -33.4560 C   0  0  0  0  0  0  0  0  0  0  0  0
    6.1350  -31.8330  -32.4600 O   0  0  0  0  0  0  0  0  0  0  0  0
    8.1870  -32.6740  -31.8030 N   0  0  0  0  0  0  0  0  0  0  0  0
  1 10  2  0
  1 11  1  0
  2  3  1  0
  2  4  1  0
  2  1  1  0
  4  6  2  0
  6 11  1  0
  7  8  1  0
  8  9  1  0
  8  4  1  0
 11  5  1  0
M  END
$$$$

     RDKit          3D

 20 21  0  0  0  0  0  0  0  0999 V2000
    5.4620  -34.9870  -37.2920 C   0  0  0  0  0  0  0  0  0  0  0  0
    7.5240  -34.5940  -33.8300 C   0  0  0  0  0  0  0  0  0  0  0  0
    6.4270  -32.6700  -32.9300 N   0  0  0  0  0  0  0  0  0  0  0  0
    8.7260  -35.4750  -33.9000 C   0  0  0  0  0  0  0  0  0  0  0  0
   11.1460  -33.6880  -31.9440 C   0  0  0  0  0  0  0  0  0  0  0  0
    9.8440  -33.7550  -32.2580 C   0  0  0  0  0  0  0  0  0  0  0  0
    7.5750  -33.5080  -33.0130 C   0  0  0  0  0  0  0  0  0  0  0  0
    9.5170  -34.6670  -33.1320 N   0  0  0  0  0  0  0  0  0  0  0  0
    9.0320  -32.9670  -31.4030 C   0  0  0  0  0  0  0  0  0  0  0  0
    6.1380  -35.4790  -35.2700 O   0  0  0  0  0  0  0  0  0  0  0  0
   11.8000  -33.3030  -30.8770 C   0  0  0  0  0  0  0  0  0  0  0  0
   12.2130  -34.0480  -33.4270 Cl  0  0  0  0  0  0  0  0  0  0  0  0
    4.9500  -35.2660  -36.0070 C   0  0  0  0  0  0  0  0  0  0  0  0
   11.0080  -32.9140  -29.9830 C   0  0  0  0  0  0  0  0  0  0  0  0
    5.6270  -33.0730  -33.6730 C   0  0  0  0  0  0  0  0  0  0  0  0
    9.7120  -32.6080  -30.1850 C   0  0  0  0  0  0  0  0  0  0  0  0
   10.9280  -31.2500  -28.6290 C   0  0  0  0  0  0  0  0  0  0  0  0
    6.4170  -34.4500  -34.4090 C   0  0  0  0  0  0  0  0  0  0  0  0
    5.4620  -33.8640  -34.3230 N   0  0  0  0  0  0  0  0  0  0  0  0
   11.6160  -32.4390  -28.8240 O   0  0  0  0  0  0  0  0  0  0  0  0
  1 13  1  0
  2  7  2  0
  4  2  1  0
  4  8  1  0
  5 11  1  0
  6  5  2  0
  6  9  1  0
  7  3  1  0
  8  6  1  0
  9 16  2  0
 10 18  1  0
 11 14  2  0
 12  5  1  0
 13 10  1  0
 14 20  1  0
 15  3  2  0
 16 14  1  0
 18 19  2  0
 18  2  1  0
 19 15  1  0
 20 17  1  0
M  END
$$$$

     RDKit          3D

 20 21  0  0  0  0  0  0  0  0999 V2000
   12.3120  -33.1590  -29.9190 C   0  0  0  0  0  0  0  0  0  0  0  0
    9.3690  -32.6980  -31.7510 C   0  0  0  0  0  0  0  0  0  0  0  0
    7.9150  -31.9190  -30.0240 C   0  0  0  0  0  0  0  0  0  0  0  0
    6.6930  -36.2200  -35.0150 O   0  0  0  0  0  0  0  0  0  0  0  0
    9.1000  -32.2680  -30.3490 C   0  0  0  0  0  0  0  0  0  0  0  0
    6.4750  -34.1010  -33.5110 C   0  0  0  0  0  0  0  0  0  0  0  0
    6.9370  -31.8880  -30.8830 C   0  0  0  0  0  0  0  0  0  0  0  0
   11.3730  -32.2760  -29.0690 C   0  0  0  0  0  0  0  0  0  0  0  0
    8.2600  -32.4730  -32.7150 C   0  0  0  0  0  0  0  0  0  0  0  0
   10.4800  -34.5480  -33.0810 C   0  0  0  0  0  0  0  0  0  0  0  0
   10.1830  -32.2220  -29.4420 C   0  0  0  0  0  0  0  0  0  0  0  0
    9.6760  -35.1800  -33.7070 C   0  0  0  0  0  0  0  0  0  0  0  0
    7.9290  -33.5990  -33.5250 C   0  0  0  0  0  0  0  0  0  0  0  0
   11.7730  -33.2340  -31.3760 C   0  0  0  0  0  0  0  0  0  0  0  0
    5.6750  -35.0130  -36.9000 C   0  0  0  0  0  0  0  0  0  0  0  0
   10.3930  -33.7590  -31.7890 C   0  0  0  0  0  0  0  0  0  0  0  0
    5.5180  -35.4770  -35.5480 C   0  0  0  0  0  0  0  0  0  0  0  0
    4.3710  -34.8550  -37.4800 O   0  0  0  0  0  0  0  0  0  0  0  0
    7.0710  -32.1140  -32.1710 C   0  0  0  0  0  0  0  0  0  0  0  0
    5.5610  -34.2190  -34.7000 C   0  0  0  0  0  0  0  0  0  0  0  0
  1  8  1  0
  2  5  1  0
  5  3  1  0
  5 11  2  0
  7  3  2  0
  9 13  1  0
  9 19  1  0
  9  2  1  0
 11  8  2  0
 12 10  2  0
 13  6  1  0
 14  1  1  0
 15 17  1  0
 16 10  1  0
 16  2  1  0
 16 14  1  0
 17  4  1  0
 17 20  1  0
 18 15  1  0
 19  7  1  0
 20  6  1  0
M  END
$$$$

     RDKit          3D

 11 11  0  0  0  0  0  0  0  0999 V2000
   10.4780  -33.7210  -31.8170 C   0  0  0  0  0  0  0  0  0  0  0  0
    9.6060  -31.9870  -29.8060 C   0  0  0  0  0  0  0  0  0  0  0  0
    7.8330  -34.9750  -33.3240 O   0  0  0  0  0  0  0  0  0  0  0  0
    7.8450  -34.5750  -33.4930 C   0  0  0  0  0  0  0  0  0  0  0  0
   10.9220  -32.5590  -29.7810 C   0  0  0  0  0  0  0  0  0  0  0  0
    7.0770  -34.7830  -34.6170 N   0  0  0  0  0  0  0  0  0  0  0  0
   11.3450  -33.4460  -30.7060 C   0  0  0  0  0  0  0  0  0  0  0  0
    6.9130  -32.5090  -33.1630 C   0  0  0  0  0  0  0  0  0  0  0  0
    8.7740  -32.2910  -30.8960 C   0  0  0  0  0  0  0  0  0  0  0  0
    8.2730  -33.2850  -32.9350 C   0  0  0  0  0  0  0  0  0  0  0  0
    9.1970  -33.2190  -31.8920 C   0  0  0  0  0  0  0  0  0  0  0  0
  1  7  1  0
  2  5  1  0
  4  3  2  0
  4 10  1  0
  6  4  1  0
  7  5  2  0
  9  2  2  0
 10  8  1  0
 10 11  1  0
 11  1  2  0
 11  9  1  0
M  END
$$$$

     RDKit          3D

 28 32  0  0  0  0  0  0  0  0999 V2000
    9.3300  -33.4060  -32.3350 N   0  0  0  0  0  0  0  0  0  0  0  0
   12.6340  -33.7000  -30.6060 C   0  0  0  0  0  0  0  0  0  0  0  0
    5.4880  -31.4490  -32.1370 C   0  0  0  0  0  0  0  0  0  0  0  0
    8.1600  -33.7970  -32.7880 C   0  0  0  0  0  0  0  0  0  0  0  0
    4.5730  -33.8760  -36.0380 C   0  0  0  0  0  0  0  0  0  0  0  0
   13.2740  -34.0710  -31.7970 C   0  0  0  0  0  0  0  0  0  0  0  0
    6.1190  -32.5840  -32.9790 C   0  0  0  0  0  0  0  0  0  0  0  0
   10.5330  -33.6200  -31.9610 C   0  0  0  0  0  0  0  0  0  0  0  0
    8.0440  -34.3420  -33.9820 C   0  0  0  0  0  0  0  0  0  0  0  0
    8.8590  -35.9680  -36.5020 C   0  0  0  0  0  0  0  0  0  0  0  0
    6.3980  -31.0890  -31.0790 O   0  0  0  0  0  0  0  0  0  0  0  0
   11.2160  -34.2020  -33.0300 C   0  0  0  0  0  0  0  0  0  0  0  0
    6.7650  -34.8630  -35.9660 C   0  0  0  0  0  0  0  0  0  0  0  0
    5.7350  -34.6960  -38.1110 O   0  0  0  0  0  0  0  0  0  0  0  0
    5.8220  -33.4820  -34.0680 C   0  0  0  0  0  0  0  0  0  0  0  0
    3.7820  -32.8820  -37.0620 C   0  0  0  0  0  0  0  0  0  0  0  0
    8.4170  -31.7450  -30.3670 O   0  0  0  0  0  0  0  0  0  0  0  0
    4.7890  -33.2850  -34.7620 N   0  0  0  0  0  0  0  0  0  0  0  0
    7.5470  -31.8820  -31.1800 C   0  0  0  0  0  0  0  0  0  0  0  0
   11.3300  -33.5100  -30.6570 C   0  0  0  0  0  0  0  0  0  0  0  0
   12.5880  -34.0840  -32.9850 C   0  0  0  0  0  0  0  0  0  0  0  0
    7.0240  -35.4390  -38.2650 C   0  0  0  0  0  0  0  0  0  0  0  0
    7.4390  -35.8250  -36.8480 C   0  0  0  0  0  0  0  0  0  0  0  0
   14.5630  -34.3270  -31.8140 F   0  0  0  0  0  0  0  0  0  0  0  0
    7.4630  -32.7740  -32.3540 C   0  0  0  0  0  0  0  0  0  0  0  0
   10.7790  -33.1620  -29.3990 C   0  0  0  0  0  0  0  0  0  0  0  0
    6.9160  -34.2580  -34.7120 C   0  0  0  0  0  0  0  0  0  0  0  0
    5.6300  -34.5060  -36.6760 N   0  0  0  0  0  0  0  0  0  0  0  0
  1  8  1  0
  3 11  1  0
  4 25  1  0
  4  1  1  0
  5 18  2  0
  6  2  2  0
  7 25  2  0
  7  3  1  0
  8 20  2  0
  9  4  1  0
 12 21  2  0
 12  8  1  0
 13 27  1  0
 14 28  1  0
 15  7  1  0
 16  5  1  0
 18 15  2  0
 19 11  1  0
 19 17  2  0
 20  2  1  0
 20 26  1  0
 21  6  1  0
 22 14  1  0
 22 23  1  0
 23 10  1  0
 23 13  1  0
 24  6  1  0
 25 19  1  0
 27 15  1  0
 27  9  2  0
 28  5  1  0
 28 13  1  0
M  END
$$$$

     RDKit          3D

 32 33  0  0  0  0  0  0  0  0999 V2000
    3.9510  -33.4810  -37.9730 C   0  0  0  0  0  0  0  0  0  0  0  0
    7.1880  -31.6280  -31.0990 O   0  0  0  0  0  0  0  0  0  0  0  0
    9.8030  -32.1360  -30.1210 N   0  0  0  0  0  0  0  0  0  0  0  0
    3.9310  -34.4860  -35.6010 C   0  0  0  0  0  0  0  0  0  0  0  0
    5.0410  -33.3240  -38.9520 C   0  0  0  0  0  0  0  0  0  0  0  0
    9.2350  -32.8410  -31.2700 C   0  0  0  0  0  0  0  0  0  0  0  0
    9.2930  -31.0300  -29.4220 C   0  0  0  0  0  0  0  0  0  0  0  0
    9.2560  -33.9960  -31.8470 O   0  0  0  0  0  0  0  0  0  0  0  0
    5.2090  -32.5280  -40.0930 O   0  0  0  0  0  0  0  0  0  0  0  0
   12.9820  -33.1510  -33.3600 C   0  0  0  0  0  0  0  0  0  0  0  0
   11.4340  -34.5850  -33.9890 C   0  0  0  0  0  0  0  0  0  0  0  0
    6.7940  -34.0700  -34.1340 S   0  0  0  0  0  0  0  0  0  0  0  0
    4.5030  -33.2010  -34.8500 C   0  0  0  0  0  0  0  0  0  0  0  0
    4.6780  -32.7390  -33.4450 C   0  0  0  0  0  0  0  0  0  0  0  0
   10.9200  -35.6250  -34.4150 C   0  0  0  0  0  0  0  0  0  0  0  0
   12.1680  -33.2510  -32.3320 N   0  0  0  0  0  0  0  0  0  0  0  0
    5.7950  -32.4490  -32.9270 N   0  0  0  0  0  0  0  0  0  0  0  0
   14.1940  -33.1500  -33.5440 N   0  0  0  0  0  0  0  0  0  0  0  0
    5.1700  -35.6460  -37.1200 C   0  0  0  0  0  0  0  0  0  0  0  0
    9.7600  -35.6180  -33.9640 S   0  0  0  0  0  0  0  0  0  0  0  0
    7.3360  -33.9410  -39.3840 O   0  0  0  0  0  0  0  0  0  0  0  0
    6.3690  -35.1230  -37.5960 C   0  0  0  0  0  0  0  0  0  0  0  0
   10.8960  -33.9260  -29.3300 O   0  0  0  0  0  0  0  0  0  0  0  0
   11.3790  -34.2790  -32.8130 C   0  0  0  0  0  0  0  0  0  0  0  0
   10.0560  -34.4700  -32.9730 C   0  0  0  0  0  0  0  0  0  0  0  0
    3.7950  -32.3910  -32.8200 O   0  0  0  0  0  0  0  0  0  0  0  0
   10.9850  -32.7790  -29.5570 C   0  0  0  0  0  0  0  0  0  0  0  0
    6.3610  -34.1410  -38.7160 C   0  0  0  0  0  0  0  0  0  0  0  0
    7.0720  -33.1610  -33.0210 C   0  0  0  0  0  0  0  0  0  0  0  0
   12.0410  -32.1240  -29.2810 O   0  0  0  0  0  0  0  0  0  0  0  0
    7.6910  -32.5520  -31.8010 C   0  0  0  0  0  0  0  0  0  0  0  0
    4.0110  -34.7330  -37.1060 C   0  0  0  0  0  0  0  0  0  0  0  0
  1 32  1  0
  3 27  1  0
  3  7  1  0
  4 13  2  3
  5  9  1  0
  5 28  1  0
  5  1  1  0
  6  8  1  0
  6  3  1  0
 10 16  1  0
 11 24  1  0
 12 29  2  0
 13 14  1  0
 14 17  1  0
 14 26  2  0
 15 11  1  0
 15 20  1  0
 18 10  2  0
 19 32  1  0
 20 25  1  0
 21 28  2  0
 22 19  1  0
 24 16  1  0
 25 24  1  0
 25  8  1  0
 27 23  2  0
 27 30  1  0
 28 22  1  0
 29 17  1  0
 29 31  1  0
 31  6  1  0
 31  2  2  0
 32  4  1  0
M  END
$$$$

     RDKit          3D

  9 10  0  0  0  0  0  0  0  0999 V2000
    6.1160  -32.8820  -33.5130 C   0  0  0  0  0  0  0  0  0  0  0  0
    9.3860  -34.0830  -32.5400 C   0  0  0  0  0  0  0  0  0  0  0  0
    9.5310  -32.5330  -30.6630 C   0  0  0  0  0  0  0  0  0  0  0  0
    8.2970  -31.9440  -30.8580 C   0  0  0  0  0  0  0  0  0  0  0  0
    7.1850  -33.7430  -33.6860 C   0  0  0  0  0  0  0  0  0  0  0  0
    7.5980  -32.4530  -31.9490 C   0  0  0  0  0  0  0  0  0  0  0  0
   10.1330  -33.5020  -31.4950 N   0  0  0  0  0  0  0  0  0  0  0  0
    8.0520  -33.4270  -32.7410 C   0  0  0  0  0  0  0  0  0  0  0  0
    6.3260  -32.0400  -32.4730 N   0  0  0  0  0  0  0  0  0  0  0  0
  1  9  1  0
  2  7  1  0
  4  3  1  0
  5  1  1  0
  5  8  2  0
  6  4  1  0
  7  3  2  0
  8  2  1  0
  8  6  1  0
  9  6  2  0
M  END
$$$$

     RDKit          3D

 11 12  0  0  0  0  0  0  0  0999 V2000
    6.6940  -30.8740  -31.2640 O   0  0  0  0  0  0  0  0  0  0  0  0
    7.7660  -33.7850  -33.0580 C   0  0  0  0  0  0  0  0  0  0  0  0
    5.8360  -33.9970  -34.5910 C   0  0  0  0  0  0  0  0  0  0  0  0
    8.7070  -32.0390  -31.2700 N   0  0  0  0  0  0  0  0  0  0  0  0
    6.9220  -32.7190  -32.7060 C   0  0  0  0  0  0  0  0  0  0  0  0
    7.3970  -31.8260  -31.7420 C   0  0  0  0  0  0  0  0  0  0  0  0
    5.4840  -32.6050  -33.5280 S   0  0  0  0  0  0  0  0  0  0  0  0
    9.3650  -33.1380  -31.5820 C   0  0  0  0  0  0  0  0  0  0  0  0
    7.1450  -34.6440  -34.1160 C   0  0  0  0  0  0  0  0  0  0  0  0
    7.6040  -35.7460  -34.4470 O   0  0  0  0  0  0  0  0  0  0  0  0
    8.9770  -34.1040  -32.4550 N   0  0  0  0  0  0  0  0  0  0  0  0
  2  5  1  0
  2 11  2  0
  3  9  1  0
  3  7  1  0
  5  7  1  0
  5  6  1  0
  6  4  2  0
  6  1  2  0
  8  4  1  0
  9  2  1  0
 10  9  2  0
 11  8  1  0
M  END
$$$$

     RDKit          3D

 11 12  0  0  0  0  0  0  0  0999 V2000
   10.4300  -33.7350  -30.2670 C   0  0  0  0  0  0  0  0  0  0  0  0
    7.0560  -32.2330  -32.4700 C   0  0  0  0  0  0  0  0  0  0  0  0
    9.4550  -34.8650  -32.8730 N   0  0  0  0  0  0  0  0  0  0  0  0
    8.6210  -31.9300  -30.5620 C   0  0  0  0  0  0  0  0  0  0  0  0
    7.6160  -34.2230  -33.9380 N   0  0  0  0  0  0  0  0  0  0  0  0
    7.7820  -33.3480  -32.8780 C   0  0  0  0  0  0  0  0  0  0  0  0
    8.9030  -33.7480  -32.2170 C   0  0  0  0  0  0  0  0  0  0  0  0
    9.2820  -33.0520  -30.9600 C   0  0  0  0  0  0  0  0  0  0  0  0
    8.5970  -35.0950  -33.8630 C   0  0  0  0  0  0  0  0  0  0  0  0
    6.0280  -31.8540  -33.2900 N   0  0  0  0  0  0  0  0  0  0  0  0
    7.4420  -31.5490  -31.2880 C   0  0  0  0  0  0  0  0  0  0  0  0
  2 11  2  0
  3  7  2  0
  5  9  1  0
  5  6  2  0
  6  2  1  0
  6  7  1  0
  7  8  1  0
  8  4  2  0
  8  1  1  0
  9  3  1  0
 10  2  1  0
 11  4  1  0
M  END
$$$$

     RDKit          3D

 20 22  0  0  0  0  0  0  0  0999 V2000
    5.5890  -33.9520  -35.0090 C   0  0  0  0  0  0  0  0  0  0  0  0
   10.4820  -32.1360  -28.6970 C   0  0  0  0  0  0  0  0  0  0  0  0
   11.8380  -32.4880  -28.5490 C   0  0  0  0  0  0  0  0  0  0  0  0
    9.8280  -32.4850  -29.9490 C   0  0  0  0  0  0  0  0  0  0  0  0
    6.5490  -31.1640  -31.1520 C   0  0  0  0  0  0  0  0  0  0  0  0
    9.2630  -33.4800  -32.1150 C   0  0  0  0  0  0  0  0  0  0  0  0
    7.3160  -33.3100  -33.4640 C   0  0  0  0  0  0  0  0  0  0  0  0
    6.0270  -33.2220  -33.9220 C   0  0  0  0  0  0  0  0  0  0  0  0
    7.9390  -32.7480  -32.3720 N   0  0  0  0  0  0  0  0  0  0  0  0
    8.6520  -36.0330  -35.7040 C   0  0  0  0  0  0  0  0  0  0  0  0
   11.7060  -34.5040  -33.8200 C   0  0  0  0  0  0  0  0  0  0  0  0
   10.3240  -34.8600  -33.7960 O   0  0  0  0  0  0  0  0  0  0  0  0
    9.3260  -34.1370  -33.2810 C   0  0  0  0  0  0  0  0  0  0  0  0
    7.7860  -35.0820  -35.1190 C   0  0  0  0  0  0  0  0  0  0  0  0
    8.1520  -34.2380  -34.0140 C   0  0  0  0  0  0  0  0  0  0  0  0
   10.2300  -33.1360  -30.9410 C   0  0  0  0  0  0  0  0  0  0  0  0
    7.8360  -31.4760  -31.8570 C   0  0  0  0  0  0  0  0  0  0  0  0
   11.6160  -33.4720  -30.7640 C   0  0  0  0  0  0  0  0  0  0  0  0
   12.4270  -33.2240  -29.6340 C   0  0  0  0  0  0  0  0  0  0  0  0
    6.4680  -34.9130  -35.6220 C   0  0  0  0  0  0  0  0  0  0  0  0
  1  8  1  0
  2  3  1  0
  4  2  2  0
  6 16  1  0
  7  9  1  0
  8  7  2  0
  9  6  1  0
  9 17  1  0
 10 14  1  0
 11 12  1  0
 12 13  1  0
 13  6  2  0
 14 15  2  0
 15  7  1  0
 15 13  1  0
 16 18  2  0
 16  4  1  0
 17  5  1  0
 18 19  1  0
 19  3  2  0
 20 14  1  0
 20  1  2  0
M  END
$$$$

     RDKit          3D

 27 31  0  0  0  0  0  0  0  0999 V2000
   11.5100  -32.6980  -29.2520 C   0  0  0  0  0  0  0  0  0  0  0  0
    4.7550  -34.0070  -36.7000 N   0  0  0  0  0  0  0  0  0  0  0  0
    9.9580  -33.4820  -30.8110 N   0  0  0  0  0  0  0  0  0  0  0  0
    6.9160  -34.4180  -34.1930 C   0  0  0  0  0  0  0  0  0  0  0  0
    5.3660  -34.3690  -37.9880 C   0  0  0  0  0  0  0  0  0  0  0  0
    7.9700  -33.9010  -33.4810 C   0  0  0  0  0  0  0  0  0  0  0  0
    6.6110  -32.0930  -32.6640 C   0  0  0  0  0  0  0  0  0  0  0  0
   11.7170  -32.5660  -30.4130 N   0  0  0  0  0  0  0  0  0  0  0  0
    3.4940  -32.8810  -38.4110 C   0  0  0  0  0  0  0  0  0  0  0  0
   10.1590  -33.8000  -31.5920 C   0  0  0  0  0  0  0  0  0  0  0  0
    4.6440  -34.4280  -34.6450 C   0  0  0  0  0  0  0  0  0  0  0  0
    5.4400  -32.6500  -33.2790 N   0  0  0  0  0  0  0  0  0  0  0  0
   11.4210  -34.0520  -33.3370 C   0  0  0  0  0  0  0  0  0  0  0  0
    4.7040  -35.0130  -35.8820 C   0  0  0  0  0  0  0  0  0  0  0  0
   10.6490  -33.1260  -31.0350 N   0  0  0  0  0  0  0  0  0  0  0  0
    6.9870  -35.4390  -35.1420 C   0  0  0  0  0  0  0  0  0  0  0  0
   12.1970  -32.4370  -28.1550 N   0  0  0  0  0  0  0  0  0  0  0  0
    7.7740  -32.7560  -32.7500 C   0  0  0  0  0  0  0  0  0  0  0  0
    3.4860  -33.1820  -36.9140 C   0  0  0  0  0  0  0  0  0  0  0  0
    9.2100  -34.6070  -33.4810 C   0  0  0  0  0  0  0  0  0  0  0  0
    4.8060  -33.4050  -39.0380 C   0  0  0  0  0  0  0  0  0  0  0  0
    5.5900  -33.7800  -34.0700 C   0  0  0  0  0  0  0  0  0  0  0  0
    9.5260  -35.3690  -34.5590 C   0  0  0  0  0  0  0  0  0  0  0  0
   10.6720  -33.3700  -29.2060 N   0  0  0  0  0  0  0  0  0  0  0  0
   10.7550  -35.5690  -34.8810 C   0  0  0  0  0  0  0  0  0  0  0  0
   10.1470  -34.2990  -32.9530 N   0  0  0  0  0  0  0  0  0  0  0  0
   11.8180  -34.8280  -34.1460 C   0  0  0  0  0  0  0  0  0  0  0  0
  1 24  2  0
  1 17  1  0
  2 14  1  0
  3 24  1  0
  4 22  1  0
  4  6  2  0
  5  2  1  0
  6 18  1  0
  8  1  2  0
  9 19  1  0
 10 15  1  0
 10  3  1  0
 11 22  1  0
 12  7  1  0
 14 11  1  0
 15  3  1  0
 15  8  1  0
 16  4  1  0
 18  7  2  0
 19  2  1  0
 20  6  1  0
 20 26  1  0
 21  9  1  0
 21  5  1  0
 22 12  2  0
 23 20  1  0
 25 23  2  0
 25 27  1  0
 26 13  1  0
 26 10  1  0
 27 13  1  0
M  END
$$$$

     RDKit          3D

 14 15  0  0  0  0  0  0  0  0999 V2000
    6.9400  -30.8480  -30.9900 O   0  0  0  0  0  0  0  0  0  0  0  0
    6.0570  -34.4130  -34.4870 C   0  0  0  0  0  0  0  0  0  0  0  0
    8.0700  -32.6800  -31.9590 C   0  0  0  0  0  0  0  0  0  0  0  0
    9.1300  -32.4890  -31.0700 O   0  0  0  0  0  0  0  0  0  0  0  0
    8.7550  -34.5340  -33.6300 C   0  0  0  0  0  0  0  0  0  0  0  0
   10.4710  -35.6930  -33.2300 O   0  0  0  0  0  0  0  0  0  0  0  0
    6.8990  -31.8150  -31.7820 C   0  0  0  0  0  0  0  0  0  0  0  0
    8.2220  -35.6100  -34.4470 C   0  0  0  0  0  0  0  0  0  0  0  0
   10.1670  -34.4500  -33.2800 C   0  0  0  0  0  0  0  0  0  0  0  0
    6.8220  -35.4690  -34.9600 C   0  0  0  0  0  0  0  0  0  0  0  0
   10.9620  -33.5180  -33.2600 O   0  0  0  0  0  0  0  0  0  0  0  0
    5.7000  -32.3140  -32.8290 S   0  0  0  0  0  0  0  0  0  0  0  0
    7.8470  -33.6230  -33.0680 C   0  0  0  0  0  0  0  0  0  0  0  0
    6.4990  -33.5740  -33.5560 C   0  0  0  0  0  0  0  0  0  0  0  0
  2 14  1  0
  3  7  1  0
  3  4  1  0
  5  9  1  0
  5 13  1  0
  7  1  2  0
  8  5  2  0
  9 11  2  0
  9  6  1  0
 10  2  2  0
 10  8  1  0
 12  7  1  0
 13  3  1  0
 14 13  2  0
 14 12  1  0
M  END
$$$$

     RDKit          3D

 17 23  0  0  0  0  0  0  0  0999 V2000
    6.9310  -33.9420  -34.0000 C   0  0  0  0  0  0  0  0  0  0  0  0
    9.5630  -34.0840  -33.3550 C   0  0  0  0  0  0  0  0  0  0  0  0
    9.2140  -32.6970  -31.6080 C   0  0  0  0  0  0  0  0  0  0  0  0
    5.9420  -31.4070  -31.3440 C   0  0  0  0  0  0  0  0  0  0  0  0
    9.1070  -35.2170  -34.4980 C   0  0  0  0  0  0  0  0  0  0  0  0
    6.6420  -32.7030  -32.2300 C   0  0  0  0  0  0  0  0  0  0  0  0
   10.5270  -32.6520  -31.6520 C   0  0  0  0  0  0  0  0  0  0  0  0
   11.2050  -33.2050  -32.6420 C   0  0  0  0  0  0  0  0  0  0  0  0
    8.6800  -31.9860  -30.3540 F   0  0  0  0  0  0  0  0  0  0  0  0
    5.7530  -34.4800  -34.5140 C   0  0  0  0  0  0  0  0  0  0  0  0
    6.5040  -32.5080  -33.4760 S   0  0  0  0  0  0  0  0  0  0  0  0
    7.5380  -33.7550  -32.8530 C   0  0  0  0  0  0  0  0  0  0  0  0
    8.1010  -35.3280  -35.1470 C   0  0  0  0  0  0  0  0  0  0  0  0
   10.7170  -34.1450  -33.4810 C   0  0  0  0  0  0  0  0  0  0  0  0
    7.7730  -34.6260  -34.1640 C   0  0  0  0  0  0  0  0  0  0  0  0
    8.5200  -34.0820  -33.1890 C   0  0  0  0  0  0  0  0  0  0  0  0
    8.7420  -33.4340  -32.3760 C   0  0  0  0  0  0  0  0  0  0  0  0
  1 10  1  0
  1 11  1  0
  1 12  1  0
  2 14  1  0
  2 16  1  0
  2 17  1  0
  3  9  1  0
  5 13  1  0
  5 15  1  0
  5  2  1  0
  6  4  1  0
  7  3  2  0
  8  7  1  0
 11  6  1  0
 12 17  1  0
 12  6  1  0
 13 15  1  0
 14  8  1  0
 15  1  1  0
 15 16  1  0
 16 12  1  0
 16 17  1  0
 17  3  1  0
M  END
$$$$

     RDKit          3D

 11 11  0  0  0  0  0  0  0  0999 V2000
    8.6170  -35.2800  -34.0790 O   0  0  0  0  0  0  0  0  0  0  0  0
    9.0880  -32.2990  -30.7190 O   0  0  0  0  0  0  0  0  0  0  0  0
    9.4060  -36.0610  -33.1940 C   0  0  0  0  0  0  0  0  0  0  0  0
    5.3360  -33.6940  -34.0510 C   0  0  0  0  0  0  0  0  0  0  0  0
    7.9430  -33.2780  -32.7920 C   0  0  0  0  0  0  0  0  0  0  0  0
    6.8110  -32.5770  -32.6930 C   0  0  0  0  0  0  0  0  0  0  0  0
    9.2020  -32.7940  -32.0400 C   0  0  0  0  0  0  0  0  0  0  0  0
    7.6600  -34.3960  -33.7850 C   0  0  0  0  0  0  0  0  0  0  0  0
    6.9840  -31.0830  -31.9710 O   0  0  0  0  0  0  0  0  0  0  0  0
    6.3760  -34.5140  -34.3820 C   0  0  0  0  0  0  0  0  0  0  0  0
    5.6060  -32.4660  -33.2180 C   0  0  0  0  0  0  0  0  0  0  0  0
  1  8  1  0
  1  3  1  0
  4 11  1  0
  5  6  1  0
  5  7  1  0
  6  9  1  0
  7  2  1  0
  8  5  2  0
 10  4  2  0
 10  8  1  0
 11  6  2  0
M  END
$$$$

     RDKit          3D

 10 10  0  0  0  0  0  0  0  0999 V2000
    9.8650  -33.3450  -31.1200 C   0  0  0  0  0  0  0  0  0  0  0  0
    8.8510  -33.6230  -33.2930 C   0  0  0  0  0  0  0  0  0  0  0  0
    6.8240  -31.2710  -31.2100 N   0  0  0  0  0  0  0  0  0  0  0  0
    9.6730  -35.4780  -34.3520 O   0  0  0  0  0  0  0  0  0  0  0  0
    9.6500  -34.0880  -32.2190 C   0  0  0  0  0  0  0  0  0  0  0  0
    7.6390  -32.7850  -32.8010 C   0  0  0  0  0  0  0  0  0  0  0  0
    8.9440  -32.3740  -30.7410 C   0  0  0  0  0  0  0  0  0  0  0  0
    7.4220  -35.2020  -34.0510 O   0  0  0  0  0  0  0  0  0  0  0  0
    8.4330  -34.8110  -33.9440 C   0  0  0  0  0  0  0  0  0  0  0  0
    7.9030  -32.1520  -31.5940 C   0  0  0  0  0  0  0  0  0  0  0  0
  1  7  2  0
  2  9  1  0
  2  6  1  0
  2  5  1  0
  4  9  2  0
  5  1  1  0
  6 10  1  0
  8  9  1  0
 10  3  1  0
 10  7  1  0
M  END
$$$$
