
     RDKit          3D

  8  7  0  0  0  0  0  0  0  0999 V2000
    8.4970  -34.5260  -33.3610 S   0  0  0  0  0  0  0  0  0  0  0  0
    9.7370  -33.8170  -31.8780 C   0  0  0  0  0  0  0  0  0  0  0  0
    5.9450  -32.7470  -33.4230 N   0  0  0  0  0  0  0  0  0  0  0  0
   11.0010  -33.2840  -31.4930 O   0  0  0  0  0  0  0  0  0  0  0  0
    8.9560  -32.7660  -31.5570 N   0  0  0  0  0  0  0  0  0  0  0  0
    7.0610  -31.9960  -32.9340 C   0  0  0  0  0  0  0  0  0  0  0  0
    8.0690  -33.0550  -32.4610 C   0  0  0  0  0  0  0  0  0  0  0  0
   10.0940  -34.9820  -31.3050 O   0  0  0  0  0  0  0  0  0  0  0  0
  1  7  2  0
  2  5  1  0
  2  4  1  0
  2  8  1  0
  3  6  1  0
  6  7  1  0
  7  5  1  0
M  END
$$$$

     RDKit          3D

 13 13  0  0  0  0  0  0  0  0999 V2000
    7.7890  -33.4330  -32.9710 C   0  0  0  0  0  0  0  0  0  0  0  0
    9.4380  -35.7010  -33.6430 C   0  0  0  0  0  0  0  0  0  0  0  0
    9.7790  -34.7010  -32.6880 C   0  0  0  0  0  0  0  0  0  0  0  0
   11.0710  -33.1880  -30.4170 S   0  0  0  0  0  0  0  0  0  0  0  0
    9.0300  -33.6150  -32.3120 C   0  0  0  0  0  0  0  0  0  0  0  0
   12.1050  -33.2780  -31.6390 O   0  0  0  0  0  0  0  0  0  0  0  0
    8.1690  -35.4840  -34.2380 C   0  0  0  0  0  0  0  0  0  0  0  0
    7.3890  -34.4200  -33.8590 C   0  0  0  0  0  0  0  0  0  0  0  0
   10.7480  -34.4290  -29.7510 O   0  0  0  0  0  0  0  0  0  0  0  0
    6.2350  -34.3430  -34.3990 O   0  0  0  0  0  0  0  0  0  0  0  0
   11.4850  -32.2040  -29.4360 O   0  0  0  0  0  0  0  0  0  0  0  0
    7.0750  -32.2090  -32.7460 C   0  0  0  0  0  0  0  0  0  0  0  0
    9.5230  -32.6800  -31.2170 C   0  0  0  0  0  0  0  0  0  0  0  0
  1 12  1  0
  1  5  1  0
  2  3  1  0
  3  5  2  0
  4  9  1  0
  4 11  1  0
  5 13  1  0
  6  4  1  0
  7  8  1  0
  7  2  2  0
  8  1  1  0
 10  8  2  0
 13  4  1  0
M  END
$$$$

     RDKit          3D

 14 15  0  0  0  0  0  0  0  0999 V2000
   10.6640  -34.9240  -33.6850 C   0  0  0  0  0  0  0  0  0  0  0  0
   11.9180  -33.7710  -31.9670 C   0  0  0  0  0  0  0  0  0  0  0  0
    8.1780  -31.8300  -31.6610 C   0  0  0  0  0  0  0  0  0  0  0  0
    9.4790  -33.7460  -31.9380 C   0  0  0  0  0  0  0  0  0  0  0  0
    8.3690  -35.4820  -35.1040 C   0  0  0  0  0  0  0  0  0  0  0  0
   11.8510  -34.4720  -33.1770 C   0  0  0  0  0  0  0  0  0  0  0  0
    9.4280  -34.5210  -33.0990 C   0  0  0  0  0  0  0  0  0  0  0  0
   10.7190  -36.0690  -34.5510 C   0  0  0  0  0  0  0  0  0  0  0  0
    8.0960  -35.0380  -33.6940 C   0  0  0  0  0  0  0  0  0  0  0  0
    9.4510  -36.5630  -35.0550 C   0  0  0  0  0  0  0  0  0  0  0  0
   10.7080  -33.3950  -31.3670 C   0  0  0  0  0  0  0  0  0  0  0  0
    6.1240  -32.5660  -32.9230 N   0  0  0  0  0  0  0  0  0  0  0  0
    6.5350  -31.7280  -31.7630 C   0  0  0  0  0  0  0  0  0  0  0  0
    8.4530  -33.0900  -31.3410 O   0  0  0  0  0  0  0  0  0  0  0  0
  1  6  2  0
  1  7  1  0
  2 11  2  0
  3 14  1  0
  4 11  1  0
  4 14  1  0
  5 10  1  0
  5  9  1  0
  6  2  1  0
  7  4  2  0
  8  1  1  0
  9  7  1  0
 10  8  1  0
 12 13  1  0
 13  3  1  0
M  END
$$$$

     RDKit          3D

 14 14  0  0  0  0  0  0  0  0999 V2000
   10.2920  -34.0840  -31.9760 C   0  0  0  0  0  0  0  0  0  0  0  0
    6.8290  -34.3670  -34.1580 C   0  0  0  0  0  0  0  0  0  0  0  0
    5.2880  -32.7180  -33.2640 C   0  0  0  0  0  0  0  0  0  0  0  0
   10.0110  -35.3100  -34.2790 S   0  0  0  0  0  0  0  0  0  0  0  0
   11.6100  -32.6530  -29.8340 F   0  0  0  0  0  0  0  0  0  0  0  0
    6.3470  -32.2120  -32.4560 C   0  0  0  0  0  0  0  0  0  0  0  0
    7.8800  -33.9020  -33.4250 C   0  0  0  0  0  0  0  0  0  0  0  0
   12.5540  -33.4010  -31.8440 F   0  0  0  0  0  0  0  0  0  0  0  0
    7.6420  -32.6880  -32.5610 C   0  0  0  0  0  0  0  0  0  0  0  0
    5.4620  -33.6330  -33.9710 C   0  0  0  0  0  0  0  0  0  0  0  0
   10.9540  -34.6610  -33.0220 C   0  0  0  0  0  0  0  0  0  0  0  0
   10.6830  -34.4710  -29.8630 O   0  0  0  0  0  0  0  0  0  0  0  0
    8.7730  -34.7810  -34.0000 C   0  0  0  0  0  0  0  0  0  0  0  0
   11.3010  -33.5850  -30.8970 C   0  0  0  0  0  0  0  0  0  0  0  0
  1 14  1  0
  2 10  2  0
  2  7  1  0
  3  6  2  0
  4 13  1  0
  4 11  1  0
  7  9  2  0
  8 14  1  0
  9  6  1  0
 10  3  1  0
 11  1  1  0
 13  7  1  0
 14 12  1  0
 14  5  1  0
M  END
$$$$

     RDKit          3D

  8  8  0  0  0  0  0  0  0  0999 V2000
    9.3430  -33.6110  -31.9530 C   0  0  0  0  0  0  0  0  0  0  0  0
    8.0490  -34.3010  -33.6840 C   0  0  0  0  0  0  0  0  0  0  0  0
    8.4560  -31.7920  -30.9270 O   0  0  0  0  0  0  0  0  0  0  0  0
    7.1400  -33.4680  -33.6710 C   0  0  0  0  0  0  0  0  0  0  0  0
    8.4810  -32.6950  -31.8070 C   0  0  0  0  0  0  0  0  0  0  0  0
    6.4310  -31.6880  -32.4280 O   0  0  0  0  0  0  0  0  0  0  0  0
    7.2930  -32.5370  -32.6440 C   0  0  0  0  0  0  0  0  0  0  0  0
    9.0380  -34.7340  -33.0980 C   0  0  0  0  0  0  0  0  0  0  0  0
  1  5  1  0
  2  4  1  0
  2  8  2  0
  4  7  1  0
  5  3  2  0
  7  6  2  0
  7  5  1  0
  8  1  1  0
M  END
$$$$
