
     RDKit          3D

 12 13  0  0  0  0  0  0  0  0999 V2000
    7.0910  -34.0780  -33.8690 N   0  0  0  0  0  0  0  0  0  0  0  0
    7.8350  -32.3390  -32.3240 C   0  0  0  0  0  0  0  0  0  0  0  0
    7.4930  -35.1560  -34.3620 C   0  0  0  0  0  0  0  0  0  0  0  0
   11.7130  -33.7020  -30.4170 C   0  0  0  0  0  0  0  0  0  0  0  0
    7.9540  -33.5400  -32.9760 C   0  0  0  0  0  0  0  0  0  0  0  0
   10.9610  -32.6710  -29.6020 C   0  0  0  0  0  0  0  0  0  0  0  0
    8.9340  -34.3910  -33.0340 C   0  0  0  0  0  0  0  0  0  0  0  0
    6.6870  -31.6830  -32.3850 O   0  0  0  0  0  0  0  0  0  0  0  0
    9.9660  -34.7310  -32.0760 C   0  0  0  0  0  0  0  0  0  0  0  0
   11.3150  -33.1220  -31.9510 O   0  0  0  0  0  0  0  0  0  0  0  0
    8.7770  -35.4370  -33.8190 N   0  0  0  0  0  0  0  0  0  0  0  0
   10.3630  -33.6450  -31.2600 C   0  0  0  0  0  0  0  0  0  0  0  0
  1  5  2  0
  3  1  1  0
  3 11  1  0
  4  6  1  0
  5  2  1  0
  7  5  1  0
  7  9  1  0
  8  2  1  0
 10 12  1  0
 10  4  1  0
 11  7  2  0
 12  9  1  0
 12  4  1  0
M  END
$$$$

     RDKit          3D

 10 11  0  0  0  0  0  0  0  0999 V2000
   12.0530  -33.4640  -31.5580 C   0  0  0  0  0  0  0  0  0  0  0  0
    9.7890  -33.1750  -30.9330 C   0  0  0  0  0  0  0  0  0  0  0  0
   11.7730  -33.9030  -32.7640 C   0  0  0  0  0  0  0  0  0  0  0  0
    8.5480  -34.7500  -34.6190 S   0  0  0  0  0  0  0  0  0  0  0  0
    8.3890  -34.1560  -32.8350 N   0  0  0  0  0  0  0  0  0  0  0  0
    7.6350  -34.2670  -33.4120 C   0  0  0  0  0  0  0  0  0  0  0  0
   10.4720  -34.1820  -33.0100 C   0  0  0  0  0  0  0  0  0  0  0  0
   10.0610  -35.0180  -34.1500 C   0  0  0  0  0  0  0  0  0  0  0  0
    9.4930  -33.6930  -32.1040 C   0  0  0  0  0  0  0  0  0  0  0  0
   11.0500  -33.1060  -30.6220 C   0  0  0  0  0  0  0  0  0  0  0  0
  1 10  1  0
  2 10  2  0
  3  1  2  0
  4  8  1  0
  4  6  1  0
  5  9  2  0
  6  5  1  0
  7  8  1  0
  7  3  1  0
  7  9  1  0
  9  2  1  0
M  END
$$$$

     RDKit          3D

 19 20  0  0  0  0  0  0  0  0999 V2000
    4.6560  -32.4060  -33.1050 O   0  0  0  0  0  0  0  0  0  0  0  0
    6.5700  -31.3420  -31.3300 C   0  0  0  0  0  0  0  0  0  0  0  0
    6.9430  -32.4020  -32.3470 C   0  0  0  0  0  0  0  0  0  0  0  0
   11.9150  -32.0950  -27.5880 C   0  0  0  0  0  0  0  0  0  0  0  0
   11.9750  -33.5420  -31.3890 C   0  0  0  0  0  0  0  0  0  0  0  0
    9.8970  -34.7050  -32.8520 C   0  0  0  0  0  0  0  0  0  0  0  0
    5.8940  -32.9270  -33.2570 C   0  0  0  0  0  0  0  0  0  0  0  0
   11.6950  -32.3000  -29.2320 C   0  0  0  0  0  0  0  0  0  0  0  0
    8.6050  -34.1720  -33.2870 C   0  0  0  0  0  0  0  0  0  0  0  0
   11.9460  -33.6490  -29.8290 C   0  0  0  0  0  0  0  0  0  0  0  0
    9.4030  -32.9560  -31.5500 O   0  0  0  0  0  0  0  0  0  0  0  0
   13.3560  -32.0430  -27.1000 C   0  0  0  0  0  0  0  0  0  0  0  0
   10.6510  -35.6140  -33.7570 C   0  0  0  0  0  0  0  0  0  0  0  0
    3.9670  -32.9620  -34.3680 C   0  0  0  0  0  0  0  0  0  0  0  0
   11.7580  -34.7380  -34.0980 C   0  0  0  0  0  0  0  0  0  0  0  0
    7.5810  -34.6050  -34.1540 C   0  0  0  0  0  0  0  0  0  0  0  0
   10.5830  -33.5340  -32.0660 C   0  0  0  0  0  0  0  0  0  0  0  0
    8.1960  -33.1200  -32.3810 C   0  0  0  0  0  0  0  0  0  0  0  0
    6.2420  -33.9550  -34.1700 C   0  0  0  0  0  0  0  0  0  0  0  0
  3  2  1  0
  4 12  1  0
  5 10  1  0
  6 17  2  0
  7  1  1  0
  7  3  2  0
  8  4  1  0
  9  6  1  0
  9 18  2  0
 10  8  1  0
 13  6  1  0
 14  1  1  0
 15 13  1  0
 16  9  1  0
 17 11  1  0
 17  5  1  0
 18  3  1  0
 18 11  1  0
 19 16  2  0
 19  7  1  0
M  END
$$$$

     RDKit          3D

 22 25  0  0  0  0  0  0  0  0999 V2000
    7.7720  -34.7670  -33.7970 C   0  0  0  0  0  0  0  0  0  0  0  0
    7.5750  -31.7840  -31.3160 C   0  0  0  0  0  0  0  0  0  0  0  0
    5.4620  -34.3000  -34.8900 C   0  0  0  0  0  0  0  0  0  0  0  0
   12.1190  -33.0500  -31.7660 C   0  0  0  0  0  0  0  0  0  0  0  0
    8.3100  -36.5470  -34.9290 N   0  0  0  0  0  0  0  0  0  0  0  0
   10.8650  -36.7560  -33.9780 C   0  0  0  0  0  0  0  0  0  0  0  0
    5.0830  -33.3640  -33.7340 C   0  0  0  0  0  0  0  0  0  0  0  0
   11.2130  -33.2130  -29.5460 C   0  0  0  0  0  0  0  0  0  0  0  0
    9.7040  -33.0790  -31.4970 C   0  0  0  0  0  0  0  0  0  0  0  0
    9.9230  -33.2290  -30.1070 C   0  0  0  0  0  0  0  0  0  0  0  0
   12.3690  -33.1850  -30.3730 C   0  0  0  0  0  0  0  0  0  0  0  0
    7.5200  -33.6300  -32.9770 C   0  0  0  0  0  0  0  0  0  0  0  0
    6.7240  -35.0310  -34.7680 C   0  0  0  0  0  0  0  0  0  0  0  0
    9.7920  -36.2500  -33.0620 C   0  0  0  0  0  0  0  0  0  0  0  0
   13.9760  -33.0590  -29.8370 Cl  0  0  0  0  0  0  0  0  0  0  0  0
    8.3300  -32.8510  -32.0090 C   0  0  0  0  0  0  0  0  0  0  0  0
   13.2140  -32.8130  -32.7150 C   0  0  0  0  0  0  0  0  0  0  0  0
    8.5980  -35.8790  -33.9170 C   0  0  0  0  0  0  0  0  0  0  0  0
   10.8230  -33.0880  -32.3290 C   0  0  0  0  0  0  0  0  0  0  0  0
    7.1340  -36.0550  -35.4910 N   0  0  0  0  0  0  0  0  0  0  0  0
    6.3220  -32.8790  -32.9890 N   0  0  0  0  0  0  0  0  0  0  0  0
    6.2530  -31.7320  -32.0940 C   0  0  0  0  0  0  0  0  0  0  0  0
  1 13  1  0
  1 12  1  0
  3 13  1  0
  3  7  1  0
  4 11  1  0
  5 18  2  0
  6 14  1  0
  7 21  1  0
  9 10  2  0
 10  8  1  0
 11 15  1  0
 11  8  2  0
 12 16  2  0
 16  9  1  0
 16  2  1  0
 17  4  1  0
 18  1  1  0
 18 14  1  0
 19  4  2  0
 19  9  1  0
 20  5  1  0
 20 13  2  0
 21 12  1  0
 21 22  1  0
 22  2  2  0
M  END
$$$$

     RDKit          3D

 13 14  0  0  0  0  0  0  0  0999 V2000
    8.7340  -34.6890  -34.9380 S   0  0  0  0  0  0  0  0  0  0  0  0
    8.8900  -33.5100  -32.7970 C   0  0  0  0  0  0  0  0  0  0  0  0
   10.6960  -33.3500  -31.2190 C   0  0  0  0  0  0  0  0  0  0  0  0
    9.6260  -34.2630  -33.5830 C   0  0  0  0  0  0  0  0  0  0  0  0
    7.7950  -33.7070  -33.7800 C   0  0  0  0  0  0  0  0  0  0  0  0
   11.3140  -35.5070  -34.0300 F   0  0  0  0  0  0  0  0  0  0  0  0
   10.8360  -34.5090  -33.2230 C   0  0  0  0  0  0  0  0  0  0  0  0
    6.4630  -31.9640  -32.9340 O   0  0  0  0  0  0  0  0  0  0  0  0
    9.4680  -33.0830  -31.6190 C   0  0  0  0  0  0  0  0  0  0  0  0
    6.5260  -32.9320  -33.7300 C   0  0  0  0  0  0  0  0  0  0  0  0
    5.5200  -33.3100  -34.4440 O   0  0  0  0  0  0  0  0  0  0  0  0
    8.7050  -32.4060  -30.8700 F   0  0  0  0  0  0  0  0  0  0  0  0
   11.5200  -34.0960  -31.9920 C   0  0  0  0  0  0  0  0  0  0  0  0
  1  5  1  0
  1  4  1  0
  2  9  1  0
  4  7  1  0
  4  2  2  0
  5 10  1  0
  5  2  1  0
  6  7  1  0
  7 13  2  0
  9  3  2  0
  9 12  1  0
 10  8  1  0
 11 10  2  0
 13  3  1  0
M  END
$$$$

     RDKit          3D

 28 31  0  0  0  0  0  0  0  0999 V2000
    8.1430  -34.5470  -33.5820 C   0  0  0  0  0  0  0  0  0  0  0  0
   14.6610  -32.3980  -34.2840 C   0  0  0  0  0  0  0  0  0  0  0  0
   13.1340  -33.7580  -33.3290 C   0  0  0  0  0  0  0  0  0  0  0  0
    8.3410  -33.8890  -32.8820 C   0  0  0  0  0  0  0  0  0  0  0  0
    4.0700  -32.1760  -32.1470 C   0  0  0  0  0  0  0  0  0  0  0  0
    6.1190  -33.1620  -32.9910 C   0  0  0  0  0  0  0  0  0  0  0  0
   17.6810  -34.2990  -33.6330 C   0  0  0  0  0  0  0  0  0  0  0  0
   18.5200  -33.1090  -33.6280 O   0  0  0  0  0  0  0  0  0  0  0  0
    3.1930  -30.7940  -30.6730 C   0  0  0  0  0  0  0  0  0  0  0  0
   18.0470  -35.4490  -33.0810 O   0  0  0  0  0  0  0  0  0  0  0  0
   14.5090  -34.6460  -32.9830 S   0  0  0  0  0  0  0  0  0  0  0  0
    5.7180  -34.3820  -34.3350 S   0  0  0  0  0  0  0  0  0  0  0  0
   13.2940  -32.4650  -34.0250 C   0  0  0  0  0  0  0  0  0  0  0  0
   11.5370  -34.5860  -33.1680 C   0  0  0  0  0  0  0  0  0  0  0  0
    7.1900  -34.6840  -34.3330 C   0  0  0  0  0  0  0  0  0  0  0  0
    7.2330  -33.0300  -32.3940 C   0  0  0  0  0  0  0  0  0  0  0  0
   11.2850  -33.5800  -31.8250 O   0  0  0  0  0  0  0  0  0  0  0  0
    2.9370  -30.5380  -31.7230 N   0  0  0  0  0  0  0  0  0  0  0  0
   10.5370  -36.0970  -33.9870 C   0  0  0  0  0  0  0  0  0  0  0  0
   16.5360  -34.3080  -34.2030 N   0  0  0  0  0  0  0  0  0  0  0  0
    7.4530  -35.8140  -35.5910 C   0  0  0  0  0  0  0  0  0  0  0  0
    8.7140  -36.0560  -35.4510 C   0  0  0  0  0  0  0  0  0  0  0  0
   15.3810  -33.5530  -33.9700 C   0  0  0  0  0  0  0  0  0  0  0  0
    3.0770  -31.7120  -32.5220 O   0  0  0  0  0  0  0  0  0  0  0  0
    9.2170  -35.8810  -33.8310 C   0  0  0  0  0  0  0  0  0  0  0  0
    4.9340  -32.7320  -32.9690 O   0  0  0  0  0  0  0  0  0  0  0  0
   11.1640  -34.8660  -34.2510 N   0  0  0  0  0  0  0  0  0  0  0  0
    4.2640  -31.8600  -30.8080 C   0  0  0  0  0  0  0  0  0  0  0  0
  1  4  2  0
  2 13  1  0
  2 23  1  0
  3 14  1  0
  3 11  1  0
  4 16  1  0
  5 26  1  0
  5 28  1  0
  6 26  1  0
  6 16  2  0
  7  8  2  0
  7 10  1  0
 12 15  1  0
 12  6  1  0
 13  3  1  0
 14 17  1  0
 15 21  1  0
 15  1  1  0
 18  9  1  0
 20  7  1  0
 21 22  1  0
 22 25  1  0
 23 20  1  0
 23 11  1  0
 24  5  1  0
 24 18  1  0
 25 19  1  0
 25  1  1  0
 27 19  1  0
 27 14  1  0
 28  9  1  0
M  END
$$$$

     RDKit          3D

 11 11  0  0  0  0  0  0  0  0999 V2000
    9.7960  -34.0690  -31.3240 C   0  0  0  0  0  0  0  0  0  0  0  0
   11.5370  -33.7070  -32.9060 C   0  0  0  0  0  0  0  0  0  0  0  0
   10.7350  -33.7830  -30.3550 C   0  0  0  0  0  0  0  0  0  0  0  0
    6.9310  -34.9610  -35.1910 N   0  0  0  0  0  0  0  0  0  0  0  0
    8.0810  -33.9240  -33.5400 N   0  0  0  0  0  0  0  0  0  0  0  0
   10.1800  -34.0590  -32.6120 C   0  0  0  0  0  0  0  0  0  0  0  0
   12.0300  -33.4480  -30.5950 C   0  0  0  0  0  0  0  0  0  0  0  0
    9.2490  -34.5030  -33.6660 C   0  0  0  0  0  0  0  0  0  0  0  0
   12.3840  -33.3860  -31.8690 C   0  0  0  0  0  0  0  0  0  0  0  0
    9.6840  -35.1510  -34.6220 O   0  0  0  0  0  0  0  0  0  0  0  0
    6.6340  -33.9060  -34.0240 C   0  0  0  0  0  0  0  0  0  0  0  0
  1  3  1  0
  2  6  1  0
  2  9  2  0
  4 11  1  0
  6  1  2  0
  7  3  2  0
  8  5  1  0
  8  6  1  0
  9  7  1  0
 10  8  2  0
 11  5  1  0
M  END
$$$$

     RDKit          3D

 23 27  0  0  0  0  0  0  0  0999 V2000
   11.9810  -32.8900  -31.2880 S   0  0  0  0  0  0  0  0  0  0  0  0
    9.9790  -33.2170  -31.6790 C   0  0  0  0  0  0  0  0  0  0  0  0
    9.8450  -32.1300  -29.4850 C   0  0  0  0  0  0  0  0  0  0  0  0
   11.3270  -33.9110  -31.6960 C   0  0  0  0  0  0  0  0  0  0  0  0
    7.6400  -34.9050  -34.1460 C   0  0  0  0  0  0  0  0  0  0  0  0
   10.6800  -34.0000  -32.9240 C   0  0  0  0  0  0  0  0  0  0  0  0
    6.5890  -34.3510  -34.7420 C   0  0  0  0  0  0  0  0  0  0  0  0
   11.1430  -32.5680  -29.7780 C   0  0  0  0  0  0  0  0  0  0  0  0
    7.8750  -34.2820  -32.9330 C   0  0  0  0  0  0  0  0  0  0  0  0
   10.0110  -33.0910  -30.2610 C   0  0  0  0  0  0  0  0  0  0  0  0
   11.4710  -34.1530  -33.0370 C   0  0  0  0  0  0  0  0  0  0  0  0
   11.5170  -32.4660  -28.3010 C   0  0  0  0  0  0  0  0  0  0  0  0
   11.9530  -33.1570  -28.7400 C   0  0  0  0  0  0  0  0  0  0  0  0
    8.3080  -35.9230  -34.7780 F   0  0  0  0  0  0  0  0  0  0  0  0
    7.6130  -33.0560  -32.5580 C   0  0  0  0  0  0  0  0  0  0  0  0
    8.6940  -32.6590  -31.8900 C   0  0  0  0  0  0  0  0  0  0  0  0
    9.1350  -32.6640  -30.7600 C   0  0  0  0  0  0  0  0  0  0  0  0
    6.3920  -32.5820  -33.0380 C   0  0  0  0  0  0  0  0  0  0  0  0
    5.8990  -33.2870  -34.1100 C   0  0  0  0  0  0  0  0  0  0  0  0
    6.1280  -34.7980  -35.9510 F   0  0  0  0  0  0  0  0  0  0  0  0
   10.2560  -34.1060  -32.3520 C   0  0  0  0  0  0  0  0  0  0  0  0
    4.6980  -32.9100  -34.5730 F   0  0  0  0  0  0  0  0  0  0  0  0
   10.0410  -33.0550  -31.5580 C   0  0  0  0  0  0  0  0  0  0  0  0
  4 11  1  0
  4  1  1  0
  5  9  1  0
  6 21  1  0
  7  5  2  0
  7 19  1  0
  8  3  1  0
  8 13  1  0
  9 15  1  0
 10  8  1  0
 10  3  1  0
 11  6  1  0
 13 12  1  0
 14  5  1  0
 15 18  1  0
 15 16  1  0
 16  2  1  0
 16 17  1  0
 17 10  1  0
 19 18  1  0
 20  7  1  0
 21  4  1  0
 21  2  1  0
 22 19  1  0
 23  1  1  0
 23 17  1  0
 23 10  1  0
M  END
$$$$

     RDKit          3D

 14 15  0  0  0  0  0  0  0  0999 V2000
    5.3420  -32.7480  -33.1880 O   0  0  0  0  0  0  0  0  0  0  0  0
    9.1220  -35.0830  -34.0450 C   0  0  0  0  0  0  0  0  0  0  0  0
    9.0600  -33.5020  -32.5000 C   0  0  0  0  0  0  0  0  0  0  0  0
    7.1880  -32.2830  -32.1170 C   0  0  0  0  0  0  0  0  0  0  0  0
    8.4210  -34.3240  -33.3670 C   0  0  0  0  0  0  0  0  0  0  0  0
    7.5440  -35.7600  -35.7820 C   0  0  0  0  0  0  0  0  0  0  0  0
    6.6200  -32.9690  -33.0310 C   0  0  0  0  0  0  0  0  0  0  0  0
    8.5160  -35.7270  -35.1430 C   0  0  0  0  0  0  0  0  0  0  0  0
    8.4150  -32.4980  -31.7080 O   0  0  0  0  0  0  0  0  0  0  0  0
   10.3020  -33.6690  -32.2480 N   0  0  0  0  0  0  0  0  0  0  0  0
    6.0560  -34.4070  -34.7060 C   0  0  0  0  0  0  0  0  0  0  0  0
    6.5630  -31.2170  -31.3180 C   0  0  0  0  0  0  0  0  0  0  0  0
    7.0650  -33.9210  -33.8420 C   0  0  0  0  0  0  0  0  0  0  0  0
    6.2360  -35.2280  -35.8070 C   0  0  0  0  0  0  0  0  0  0  0  0
  1  7  1  0
  2  5  1  0
  3 10  2  0
  3  9  1  0
  4  9  1  0
  4 12  1  0
  5  3  1  0
  6  8  2  0
  7  4  2  0
  8  2  1  0
 11 13  1  0
 13  5  2  0
 13  7  1  0
 14  6  1  0
 14 11  1  0
M  END
$$$$

     RDKit          3D

 12 12  0  0  0  0  0  0  0  0999 V2000
    9.9800  -33.4760  -30.8310 O   0  0  0  0  0  0  0  0  0  0  0  0
    9.4210  -33.7070  -31.9750 C   0  0  0  0  0  0  0  0  0  0  0  0
    6.0970  -32.8940  -33.4050 C   0  0  0  0  0  0  0  0  0  0  0  0
    7.3540  -33.5670  -33.2360 C   0  0  0  0  0  0  0  0  0  0  0  0
    5.3680  -32.2950  -32.7520 O   0  0  0  0  0  0  0  0  0  0  0  0
    8.8140  -35.4040  -33.6580 C   0  0  0  0  0  0  0  0  0  0  0  0
    7.6440  -34.7350  -33.8990 C   0  0  0  0  0  0  0  0  0  0  0  0
    5.3920  -33.5050  -34.5950 O   0  0  0  0  0  0  0  0  0  0  0  0
   11.3520  -33.1180  -30.6920 C   0  0  0  0  0  0  0  0  0  0  0  0
    9.7330  -34.9210  -32.6760 C   0  0  0  0  0  0  0  0  0  0  0  0
   11.2250  -32.1500  -29.4130 C   0  0  0  0  0  0  0  0  0  0  0  0
    8.2730  -33.1300  -32.2690 C   0  0  0  0  0  0  0  0  0  0  0  0
  1  9  1  0
  2  1  1  0
  3  4  1  0
  3  5  1  0
  4 12  2  0
  6 10  1  0
  7  6  2  0
  7  4  1  0
  8  3  2  0
  9 11  1  0
 10  2  2  0
 12  2  1  0
M  END
$$$$

     RDKit          3D

 11 11  0  0  0  0  0  0  0  0999 V2000
    8.9450  -34.4540  -33.2550 C   0  0  0  0  0  0  0  0  0  0  0  0
   10.9520  -33.8120  -32.3320 C   0  0  0  0  0  0  0  0  0  0  0  0
    9.7220  -35.2340  -34.1340 C   0  0  0  0  0  0  0  0  0  0  0  0
    5.7720  -33.7870  -34.1130 C   0  0  0  0  0  0  0  0  0  0  0  0
   11.5850  -34.4910  -33.1620 C   0  0  0  0  0  0  0  0  0  0  0  0
    9.6200  -33.7020  -32.3450 C   0  0  0  0  0  0  0  0  0  0  0  0
    5.1140  -33.3870  -34.6870 N   0  0  0  0  0  0  0  0  0  0  0  0
    7.6510  -34.5290  -33.5450 N   0  0  0  0  0  0  0  0  0  0  0  0
    4.5640  -33.0800  -33.4920 O   0  0  0  0  0  0  0  0  0  0  0  0
    6.8130  -33.5710  -33.5530 C   0  0  0  0  0  0  0  0  0  0  0  0
   11.0730  -35.0670  -34.0660 C   0  0  0  0  0  0  0  0  0  0  0  0
  1  6  1  0
  3 11  1  0
  3  1  2  0
  4 10  1  0
  5  2  1  0
  6  2  2  0
  7  4  1  0
  7  9  1  0
  8  1  1  0
 10  8  2  3
 11  5  2  0
M  END
$$$$

     RDKit          3D

 10  9  0  0  0  0  0  0  0  0999 V2000
    5.7460  -31.6190  -31.4620 C   0  0  0  0  0  0  0  0  0  0  0  0
    7.8990  -33.9270  -33.2170 C   0  0  0  0  0  0  0  0  0  0  0  0
   12.4360  -33.1980  -33.5340 N   0  0  0  0  0  0  0  0  0  0  0  0
    9.3390  -34.0530  -32.6030 C   0  0  0  0  0  0  0  0  0  0  0  0
    6.1530  -32.4230  -32.6920 C   0  0  0  0  0  0  0  0  0  0  0  0
   11.6370  -34.9050  -33.7430 O   0  0  0  0  0  0  0  0  0  0  0  0
    5.2720  -32.6640  -33.5740 O   0  0  0  0  0  0  0  0  0  0  0  0
    7.4230  -32.6530  -32.8320 N   0  0  0  0  0  0  0  0  0  0  0  0
   10.0380  -33.3730  -33.2710 C   0  0  0  0  0  0  0  0  0  0  0  0
   11.3740  -33.7760  -33.1810 C   0  0  0  0  0  0  0  0  0  0  0  0
  2  8  1  0
  2  4  1  0
  3 10  1  0
  5  1  1  0
  7  5  2  0
  8  5  1  0
  9 10  1  0
  9  4  1  0
 10  6  1  0
M  END
$$$$

     RDKit          3D

 10 10  0  0  0  0  0  0  0  0999 V2000
   11.5640  -33.8820  -31.1960 N   0  0  0  0  0  0  0  0  0  0  0  0
    8.5550  -35.6610  -34.2600 N   0  0  0  0  0  0  0  0  0  0  0  0
    9.4780  -32.9890  -31.7590 N   0  0  0  0  0  0  0  0  0  0  0  0
    8.3660  -33.1840  -32.4440 C   0  0  0  0  0  0  0  0  0  0  0  0
   10.2420  -34.9590  -32.7880 N   0  0  0  0  0  0  0  0  0  0  0  0
    9.1650  -34.8480  -33.4030 C   0  0  0  0  0  0  0  0  0  0  0  0
   10.4080  -33.9440  -31.9450 C   0  0  0  0  0  0  0  0  0  0  0  0
    6.9320  -34.4640  -34.0730 C   0  0  0  0  0  0  0  0  0  0  0  0
    8.1170  -34.1880  -33.2960 N   0  0  0  0  0  0  0  0  0  0  0  0
    7.3680  -32.2150  -32.3670 N   0  0  0  0  0  0  0  0  0  0  0  0
  2  6  1  0
  4 10  1  0
  4  3  2  0
  5  7  2  0
  6  9  1  0
  6  5  2  0
  7  3  2  0
  7  1  1  0
  8  9  1  0
  9  4  1  0
M  END
$$$$

     RDKit          3D

 14 16  0  0  0  0  0  0  0  0999 V2000
    5.9380  -33.6730  -33.9530 C   0  0  0  0  0  0  0  0  0  0  0  0
    7.4220  -32.5770  -32.3830 C   0  0  0  0  0  0  0  0  0  0  0  0
   11.6940  -33.3680  -31.4980 C   0  0  0  0  0  0  0  0  0  0  0  0
    8.0560  -34.3730  -33.9140 C   0  0  0  0  0  0  0  0  0  0  0  0
   10.3020  -33.2480  -31.4000 N   0  0  0  0  0  0  0  0  0  0  0  0
    5.1860  -31.9190  -32.4470 F   0  0  0  0  0  0  0  0  0  0  0  0
    6.1460  -32.6930  -32.9290 C   0  0  0  0  0  0  0  0  0  0  0  0
    9.4700  -35.0660  -34.3780 S   0  0  0  0  0  0  0  0  0  0  0  0
   12.3200  -33.5490  -30.0470 C   0  0  0  0  0  0  0  0  0  0  0  0
    9.7120  -33.6740  -32.4590 N   0  0  0  0  0  0  0  0  0  0  0  0
    8.4060  -33.4810  -32.8520 C   0  0  0  0  0  0  0  0  0  0  0  0
   10.4920  -34.1790  -33.3420 C   0  0  0  0  0  0  0  0  0  0  0  0
    6.8490  -34.5530  -34.4220 N   0  0  0  0  0  0  0  0  0  0  0  0
   12.1440  -34.0250  -32.9810 S   0  0  0  0  0  0  0  0  0  0  0  0
  1  7  1  0
  3  5  2  0
  3  9  1  0
  4 11  1  0
  7  6  1  0
  7  2  2  0
  8  4  1  0
 10  5  1  0
 11 10  1  0
 11  2  1  0
 12  8  1  0
 12 14  1  0
 12 10  1  0
 13  1  1  0
 13  4  2  0
 14  3  1  0
M  END
$$$$

     RDKit          3D

 14 15  0  0  0  0  0  0  0  0999 V2000
    9.8330  -34.8320  -32.6910 C   0  0  0  0  0  0  0  0  0  0  0  0
    4.6500  -33.7370  -34.7110 N   0  0  0  0  0  0  0  0  0  0  0  0
    6.7020  -35.1610  -34.6020 C   0  0  0  0  0  0  0  0  0  0  0  0
    7.8840  -33.3620  -32.6290 C   0  0  0  0  0  0  0  0  0  0  0  0
    4.1730  -34.5960  -35.3160 O   0  0  0  0  0  0  0  0  0  0  0  0
    8.5260  -34.5210  -33.1880 C   0  0  0  0  0  0  0  0  0  0  0  0
    5.9980  -34.0430  -34.1910 C   0  0  0  0  0  0  0  0  0  0  0  0
    6.5340  -33.1550  -33.2610 C   0  0  0  0  0  0  0  0  0  0  0  0
    7.9430  -35.4220  -34.1670 C   0  0  0  0  0  0  0  0  0  0  0  0
   10.5360  -34.0880  -31.8920 C   0  0  0  0  0  0  0  0  0  0  0  0
    8.5910  -32.5630  -31.5880 C   0  0  0  0  0  0  0  0  0  0  0  0
    4.0200  -32.8010  -34.4420 O   0  0  0  0  0  0  0  0  0  0  0  0
   10.5130  -36.3500  -33.2310 Cl  0  0  0  0  0  0  0  0  0  0  0  0
    9.8620  -32.9160  -31.2260 C   0  0  0  0  0  0  0  0  0  0  0  0
  1 10  1  0
  2 12  2  0
  2  7  1  0
  3  7  1  0
  3  9  2  0
  4 11  2  0
  5  2  2  0
  6  1  2  0
  6  4  1  0
  7  8  2  0
  8  4  1  0
  9  6  1  0
 10 14  2  0
 11 14  1  0
 13  1  1  0
M  END
$$$$

     RDKit          3D

  9  9  0  0  0  0  0  0  0  0999 V2000
    9.6970  -34.3860  -33.8390 C   0  0  0  0  0  0  0  0  0  0  0  0
   10.8070  -34.3030  -32.7660 C   0  0  0  0  0  0  0  0  0  0  0  0
    7.9130  -32.9060  -32.5510 C   0  0  0  0  0  0  0  0  0  0  0  0
   12.2050  -34.0260  -33.4490 C   0  0  0  0  0  0  0  0  0  0  0  0
    9.7120  -32.9970  -30.9270 C   0  0  0  0  0  0  0  0  0  0  0  0
    8.4570  -33.7300  -33.4540 C   0  0  0  0  0  0  0  0  0  0  0  0
    6.6540  -32.4250  -32.9840 N   0  0  0  0  0  0  0  0  0  0  0  0
   10.5850  -33.3960  -31.9160 C   0  0  0  0  0  0  0  0  0  0  0  0
    8.3820  -32.4680  -31.3300 C   0  0  0  0  0  0  0  0  0  0  0  0
  1  6  1  0
  1  2  1  0
  2  4  1  0
  2  8  1  0
  3  9  1  0
  6  3  2  0
  7  3  1  0
  8  5  1  0
  9  5  1  0
M  END
$$$$

     RDKit          3D

 16 19  0  0  0  0  0  0  0  0999 V2000
   10.5220  -33.9030  -30.1720 C   0  0  0  0  0  0  0  0  0  0  0  0
    6.0770  -33.7480  -34.3240 S   0  0  0  0  0  0  0  0  0  0  0  0
    7.0500  -33.3470  -33.0330 C   0  0  0  0  0  0  0  0  0  0  0  0
    7.0170  -35.0320  -34.8500 C   0  0  0  0  0  0  0  0  0  0  0  0
    9.2210  -36.1540  -34.0590 C   0  0  0  0  0  0  0  0  0  0  0  0
    9.9070  -33.4700  -31.4450 C   0  0  0  0  0  0  0  0  0  0  0  0
    8.0790  -35.2510  -34.0710 N   0  0  0  0  0  0  0  0  0  0  0  0
    6.7840  -32.2170  -32.1970 N   0  0  0  0  0  0  0  0  0  0  0  0
    8.9030  -32.4230  -31.0040 C   0  0  0  0  0  0  0  0  0  0  0  0
    7.8290  -31.7330  -31.3140 C   0  0  0  0  0  0  0  0  0  0  0  0
    9.3690  -34.4680  -32.4880 C   0  0  0  0  0  0  0  0  0  0  0  0
   11.2570  -33.1720  -31.4280 C   0  0  0  0  0  0  0  0  0  0  0  0
    8.2250  -34.3600  -33.0790 C   0  0  0  0  0  0  0  0  0  0  0  0
    6.4710  -35.8560  -36.2170 S   0  0  0  0  0  0  0  0  0  0  0  0
    5.4150  -31.6610  -32.0870 C   0  0  0  0  0  0  0  0  0  0  0  0
    9.9240  -35.6530  -33.1480 N   0  0  0  0  0  0  0  0  0  0  0  0
  2  3  1  0
  3  8  1  0
  4  2  1  0
  4  7  1  0
  5 16  1  0
  6 12  1  0
  6  9  1  0
  6  1  1  0
  7  5  1  0
  7 13  1  0
  8 15  1  0
  8 10  1  0
 10  9  1  0
 11  6  1  0
 12  1  1  0
 13  3  2  0
 13 11  1  0
 14  4  2  0
 16 11  2  0
M  END
$$$$

     RDKit          3D

 15 17  0  0  0  0  0  0  0  0999 V2000
   12.9920  -32.9990  -32.2570 F   0  0  0  0  0  0  0  0  0  0  0  0
    7.8220  -32.1010  -31.8050 C   0  0  0  0  0  0  0  0  0  0  0  0
    9.6440  -33.6260  -32.6450 N   0  0  0  0  0  0  0  0  0  0  0  0
   11.9530  -33.5910  -32.6690 C   0  0  0  0  0  0  0  0  0  0  0  0
    7.9070  -36.0990  -34.4910 C   0  0  0  0  0  0  0  0  0  0  0  0
    8.3850  -34.9200  -33.7290 N   0  0  0  0  0  0  0  0  0  0  0  0
    6.4860  -31.7870  -32.0820 C   0  0  0  0  0  0  0  0  0  0  0  0
   10.8900  -35.5410  -33.7320 C   0  0  0  0  0  0  0  0  0  0  0  0
   10.7560  -33.0480  -32.1700 C   0  0  0  0  0  0  0  0  0  0  0  0
    6.2600  -33.5540  -33.7010 C   0  0  0  0  0  0  0  0  0  0  0  0
    8.3330  -33.1430  -32.5360 C   0  0  0  0  0  0  0  0  0  0  0  0
    9.6630  -34.7340  -33.3960 C   0  0  0  0  0  0  0  0  0  0  0  0
    5.7050  -32.4640  -33.0430 C   0  0  0  0  0  0  0  0  0  0  0  0
   12.1010  -34.6460  -33.5550 C   0  0  0  0  0  0  0  0  0  0  0  0
    7.6150  -33.9040  -33.4220 C   0  0  0  0  0  0  0  0  0  0  0  0
  3 11  1  0
  3  9  1  0
  4  1  1  0
  4  9  1  0
  5  6  1  0
  6 15  1  0
  6 12  1  0
  7  2  1  0
  8 14  1  0
 10 15  2  0
 10 13  1  0
 11  2  2  0
 12  8  1  0
 12  3  1  0
 13  7  2  0
 14  4  1  0
 15 11  1  0
M  END
$$$$

     RDKit          3D

 22 24  0  0  0  0  0  0  0  0999 V2000
   12.4340  -35.2340  -33.9740 O   0  0  0  0  0  0  0  0  0  0  0  0
    3.7770  -34.9330  -35.6460 C   0  0  0  0  0  0  0  0  0  0  0  0
    8.9770  -33.2700  -32.1730 C   0  0  0  0  0  0  0  0  0  0  0  0
   10.9280  -32.3960  -29.2070 C   0  0  0  0  0  0  0  0  0  0  0  0
   11.2690  -34.0550  -32.4910 C   0  0  0  0  0  0  0  0  0  0  0  0
    5.2190  -34.6390  -35.1830 C   0  0  0  0  0  0  0  0  0  0  0  0
    5.3230  -32.0340  -32.3990 C   0  0  0  0  0  0  0  0  0  0  0  0
    4.9490  -32.8220  -33.5530 O   0  0  0  0  0  0  0  0  0  0  0  0
    9.8990  -34.0890  -33.0200 C   0  0  0  0  0  0  0  0  0  0  0  0
    5.9160  -36.1700  -36.9720 C   0  0  0  0  0  0  0  0  0  0  0  0
   11.6180  -33.7310  -31.2380 C   0  0  0  0  0  0  0  0  0  0  0  0
    7.1020  -33.8180  -33.6710 C   0  0  0  0  0  0  0  0  0  0  0  0
   12.2410  -34.1410  -33.3610 C   0  0  0  0  0  0  0  0  0  0  0  0
    8.0230  -34.6750  -34.3360 C   0  0  0  0  0  0  0  0  0  0  0  0
   10.6920  -33.2120  -30.4150 C   0  0  0  0  0  0  0  0  0  0  0  0
    7.5680  -35.4530  -35.4080 N   0  0  0  0  0  0  0  0  0  0  0  0
    6.2620  -35.3900  -35.7690 C   0  0  0  0  0  0  0  0  0  0  0  0
   11.7200  -32.3310  -28.1640 C   0  0  0  0  0  0  0  0  0  0  0  0
    5.7070  -33.7460  -34.0720 C   0  0  0  0  0  0  0  0  0  0  0  0
    9.4360  -32.6480  -30.9540 C   0  0  0  0  0  0  0  0  0  0  0  0
    9.4220  -34.7770  -34.0260 N   0  0  0  0  0  0  0  0  0  0  0  0
    7.7010  -33.2160  -32.6330 N   0  0  0  0  0  0  0  0  0  0  0  0
  1 13  2  0
  3 20  1  0
  4 18  2  0
  5 13  1  0
  5 11  1  0
  6  2  1  0
  6 19  1  0
  8  7  1  0
  9  5  1  0
  9  3  1  0
 10 17  1  0
 11 15  1  0
 12 22  2  0
 14 21  2  0
 14 12  1  0
 15  4  1  0
 16 14  2  0
 17 16  2  0
 17  6  1  0
 19 12  1  0
 19  8  1  0
 20 15  1  0
 21  9  2  0
 22  3  2  0
M  END
$$$$

     RDKit          3D

 12 12  0  0  0  0  0  0  0  0999 V2000
    8.5420  -34.5930  -34.1800 C   0  0  0  0  0  0  0  0  0  0  0  0
    7.4070  -33.9060  -33.7290 C   0  0  0  0  0  0  0  0  0  0  0  0
    9.9370  -34.3860  -33.7420 C   0  0  0  0  0  0  0  0  0  0  0  0
    8.0260  -32.8680  -31.7410 C   0  0  0  0  0  0  0  0  0  0  0  0
    9.4930  -32.8160  -31.8340 C   0  0  0  0  0  0  0  0  0  0  0  0
   10.3530  -33.0540  -30.4800 C   0  0  0  0  0  0  0  0  0  0  0  0
    7.2660  -32.8010  -32.8350 C   0  0  0  0  0  0  0  0  0  0  0  0
   10.0070  -33.6600  -32.6840 N   0  0  0  0  0  0  0  0  0  0  0  0
    8.3790  -35.6020  -36.0930 C   0  0  0  0  0  0  0  0  0  0  0  0
    7.8990  -32.0250  -30.4200 C   0  0  0  0  0  0  0  0  0  0  0  0
    8.5950  -35.5990  -34.8710 O   0  0  0  0  0  0  0  0  0  0  0  0
   10.9410  -34.7400  -34.2860 O   0  0  0  0  0  0  0  0  0  0  0  0
  1  3  1  0
  1  2  2  0
  2  7  1  0
  3  8  2  0
  4 10  1  0
  5  4  1  0
  5  6  1  0
  7  4  1  0
  8  5  1  0
  9 11  1  0
 11  1  1  0
 12  3  2  0
M  END
$$$$
