
     RDKit          3D

  9  9  0  0  0  0  0  0  0  0999 V2000
    8.7560  -35.4400  -33.3410 C   0  0  0  0  0  0  0  0  0  0  0  0
    8.3660  -33.5590  -32.7930 C   0  0  0  0  0  0  0  0  0  0  0  0
    7.1640  -35.4830  -35.1220 C   0  0  0  0  0  0  0  0  0  0  0  0
    8.6490  -32.3640  -31.5950 C   0  0  0  0  0  0  0  0  0  0  0  0
    9.0310  -34.0100  -32.4790 C   0  0  0  0  0  0  0  0  0  0  0  0
    6.7820  -33.9240  -33.3590 C   0  0  0  0  0  0  0  0  0  0  0  0
    7.4970  -34.9560  -34.0270 C   0  0  0  0  0  0  0  0  0  0  0  0
    9.8120  -34.2110  -32.1750 C   0  0  0  0  0  0  0  0  0  0  0  0
    7.2400  -32.6140  -33.1560 C   0  0  0  0  0  0  0  0  0  0  0  0
  1  5  1  0
  2  5  1  0
  3  7  2  0
  5  8  1  0
  5  4  1  0
  6  9  1  0
  7  6  1  0
  7  1  1  0
  9  2  1  0
M  END
$$$$

     RDKit          3D

 14 16  0  0  0  0  0  0  0  0999 V2000
    9.7090  -33.4510  -32.3690 C   0  0  0  0  0  0  0  0  0  0  0  0
    7.9630  -35.7550  -34.8770 C   0  0  0  0  0  0  0  0  0  0  0  0
    7.4080  -34.8990  -34.3080 C   0  0  0  0  0  0  0  0  0  0  0  0
    9.1690  -36.4120  -34.0750 C   0  0  0  0  0  0  0  0  0  0  0  0
    7.8610  -32.2050  -32.0060 C   0  0  0  0  0  0  0  0  0  0  0  0
    9.5550  -35.2960  -33.5950 C   0  0  0  0  0  0  0  0  0  0  0  0
   12.9730  -32.9750  -33.2950 C   0  0  0  0  0  0  0  0  0  0  0  0
    7.1080  -32.8650  -32.8820 C   0  0  0  0  0  0  0  0  0  0  0  0
   12.3520  -33.0960  -31.9980 C   0  0  0  0  0  0  0  0  0  0  0  0
    9.1120  -32.4690  -31.8190 N   0  0  0  0  0  0  0  0  0  0  0  0
   11.1540  -33.7440  -32.3520 C   0  0  0  0  0  0  0  0  0  0  0  0
    8.9600  -34.2000  -33.1670 C   0  0  0  0  0  0  0  0  0  0  0  0
    7.7890  -34.0050  -33.4550 C   0  0  0  0  0  0  0  0  0  0  0  0
   11.2840  -34.7510  -33.3630 O   0  0  0  0  0  0  0  0  0  0  0  0
  1 11  1  0
  1 10  2  0
  2  3  1  0
  2  4  1  0
  3 13  2  0
  5 10  1  0
  6  4  1  0
  6 14  1  0
  6 12  1  0
  7  9  1  0
  8  5  2  0
 11  9  1  0
 12 13  1  0
 12  1  1  0
 13  8  1  0
 14 11  1  0
M  END
$$$$

     RDKit          3D

  7  6  0  0  0  0  0  0  0  0999 V2000
    7.5960  -34.6590  -33.8390 C   0  0  0  0  0  0  0  0  0  0  0  0
   11.0630  -33.2170  -30.6810 O   0  0  0  0  0  0  0  0  0  0  0  0
    8.8060  -34.8450  -32.9800 C   0  0  0  0  0  0  0  0  0  0  0  0
   10.6110  -33.5690  -31.7910 C   0  0  0  0  0  0  0  0  0  0  0  0
    9.0420  -32.4500  -32.8590 O   0  0  0  0  0  0  0  0  0  0  0  0
   11.5890  -33.9470  -32.8240 C   0  0  0  0  0  0  0  0  0  0  0  0
    9.1880  -33.6980  -32.1050 C   0  0  0  0  0  0  0  0  0  0  0  0
  1  3  1  0
  3  7  1  0
  4  2  2  0
  6  4  1  0
  7  5  1  0
  7  4  1  0
M  END
$$$$

     RDKit          3D

  8  8  0  0  0  0  0  0  0  0999 V2000
    9.2440  -34.3050  -32.9020 C   0  0  0  0  0  0  0  0  0  0  0  0
   10.5810  -33.2610  -31.1610 C   0  0  0  0  0  0  0  0  0  0  0  0
   10.4250  -34.4410  -33.3690 C   0  0  0  0  0  0  0  0  0  0  0  0
   11.5470  -34.2620  -33.1560 C   0  0  0  0  0  0  0  0  0  0  0  0
    8.2870  -32.4450  -31.4800 N   0  0  0  0  0  0  0  0  0  0  0  0
   11.5580  -33.5640  -31.9950 C   0  0  0  0  0  0  0  0  0  0  0  0
    9.4700  -33.3370  -31.9130 C   0  0  0  0  0  0  0  0  0  0  0  0
   10.6520  -32.7770  -29.5040 Cl  0  0  0  0  0  0  0  0  0  0  0  0
  1  7  1  0
  2  8  1  0
  3  4  1  0
  3  1  1  0
  4  6  1  0
  6  2  1  0
  7  5  1  0
  7  2  1  0
M  END
$$$$

     RDKit          3D

 10 10  0  0  0  0  0  0  0  0999 V2000
    7.9540  -33.6630  -33.1680 C   0  0  0  0  0  0  0  0  0  0  0  0
    7.2850  -34.5810  -33.8800 C   0  0  0  0  0  0  0  0  0  0  0  0
    9.8630  -33.0060  -32.4150 O   0  0  0  0  0  0  0  0  0  0  0  0
    5.9630  -31.6520  -31.2790 C   0  0  0  0  0  0  0  0  0  0  0  0
    9.7960  -34.9450  -33.3140 C   0  0  0  0  0  0  0  0  0  0  0  0
    9.0120  -33.8620  -33.0340 C   0  0  0  0  0  0  0  0  0  0  0  0
    7.3210  -32.6030  -32.9310 N   0  0  0  0  0  0  0  0  0  0  0  0
    7.2350  -32.0130  -31.6450 C   0  0  0  0  0  0  0  0  0  0  0  0
    9.3140  -36.0430  -33.7750 C   0  0  0  0  0  0  0  0  0  0  0  0
    7.9910  -35.8040  -34.1130 C   0  0  0  0  0  0  0  0  0  0  0  0
  1  6  1  0
  1  7  1  0
  2  1  2  0
  5  6  2  0
  6  3  1  0
  7  8  1  0
  8  4  1  0
  9  5  1  0
 10  2  1  0
 10  9  2  0
M  END
$$$$
