
     RDKit          3D

 10 10  0  0  0  0  0  0  0  0999 V2000
  -16.0430   -4.2550   26.0150 O   0  0  0  0  0  0  0  0  0  0  0  0
  -14.2820   -2.9580   28.3930 C   0  0  0  0  0  0  0  0  0  0  0  0
  -12.1210   -4.1620   29.9340 O   0  0  0  0  0  0  0  0  0  0  0  0
  -11.7800   -3.6720   28.4700 S   0  0  0  0  0  0  0  0  0  0  0  0
  -10.9310   -4.6720   27.9030 O   0  0  0  0  0  0  0  0  0  0  0  0
  -15.3330   -3.0330   27.7730 O   0  0  0  0  0  0  0  0  0  0  0  0
  -13.2100   -3.4890   27.7400 C   0  0  0  0  0  0  0  0  0  0  0  0
  -11.1450   -2.5160   28.8480 O   0  0  0  0  0  0  0  0  0  0  0  0
  -15.0860   -3.8170   26.7060 C   0  0  0  0  0  0  0  0  0  0  0  0
  -13.7290   -3.8330   26.5160 C   0  0  0  0  0  0  0  0  0  0  0  0
  1  9  2  0
  4  8  1  0
  4  3  1  0
  5  4  1  0
  6  2  1  0
  7  2  1  0
  7  4  1  0
  9  6  1  0
 10  9  1  0
 10  7  1  0
M  END
$$$$

     RDKit          3D

  9 10  0  0  0  0  0  0  0  0999 V2000
   -8.6260   -7.9190   23.3000 N   0  0  0  0  0  0  0  0  0  0  0  0
   -7.5640   -7.4050   23.9250 N   0  0  0  0  0  0  0  0  0  0  0  0
   -6.7290   -7.5310   21.9230 N   0  0  0  0  0  0  0  0  0  0  0  0
   -8.5860   -8.7280   21.1430 N   0  0  0  0  0  0  0  0  0  0  0  0
   -7.5530   -6.1610   25.9230 O   0  0  0  0  0  0  0  0  0  0  0  0
   -6.4370   -7.2120   23.1600 C   0  0  0  0  0  0  0  0  0  0  0  0
   -7.2260   -6.8910   24.9450 C   0  0  0  0  0  0  0  0  0  0  0  0
   -5.7440   -6.7570   24.6200 S   0  0  0  0  0  0  0  0  0  0  0  0
   -8.0630   -8.0300   22.0480 C   0  0  0  0  0  0  0  0  0  0  0  0
  1  2  1  0
  2  7  1  0
  3  9  2  0
  3  6  2  0
  4  9  1  0
  6  2  1  0
  6  8  1  0
  7  5  2  0
  8  7  1  0
  9  1  2  0
M  END
$$$$

     RDKit          3D

  9  8  0  0  0  0  0  0  0  0999 V2000
  -13.3040   -3.0880   27.2010 C   0  0  0  0  0  0  0  0  0  0  0  0
  -12.7270   -1.6870   27.2410 C   0  0  0  0  0  0  0  0  0  0  0  0
  -16.7480   -3.0900   27.0210 O   0  0  0  0  0  0  0  0  0  0  0  0
  -10.9730   -3.4970   27.4510 O   0  0  0  0  0  0  0  0  0  0  0  0
  -15.8260   -4.7590   26.3220 O   0  0  0  0  0  0  0  0  0  0  0  0
  -12.1450   -4.0220   27.4090 C   0  0  0  0  0  0  0  0  0  0  0  0
  -14.5380   -3.3420   27.8370 C   0  0  0  0  0  0  0  0  0  0  0  0
  -15.7030   -3.8290   27.0240 C   0  0  0  0  0  0  0  0  0  0  0  0
  -12.4140   -5.2340   27.4190 O   0  0  0  0  0  0  0  0  0  0  0  0
  1  2  1  0
  1  6  1  0
  1  7  1  0
  3  8  1  0
  5  8  2  0
  6  9  2  0
  6  4  1  0
  8  7  1  0
M  END
$$$$

     RDKit          3D

  5  5  0  0  0  0  0  0  0  0999 V2000
   -6.7270   -4.8000   25.6190 C   0  0  0  0  0  0  0  0  0  0  0  0
   -6.9340   -6.1170   23.6910 O   0  0  0  0  0  0  0  0  0  0  0  0
   -6.0130   -5.7680   24.7210 C   0  0  0  0  0  0  0  0  0  0  0  0
   -6.7510   -6.3220   25.8610 C   0  0  0  0  0  0  0  0  0  0  0  0
   -6.8140   -7.6400   25.6320 O   0  0  0  0  0  0  0  0  0  0  0  0
  1  4  1  0
  3  2  1  0
  3  1  1  0
  3  4  1  0
  4  5  1  0
M  END
$$$$

     RDKit          3D

  9 12  0  0  0  0  0  0  0  0999 V2000
  -13.5350   -9.1190   20.6910 C   0  0  0  0  0  0  0  0  0  0  0  0
  -12.0030   -8.9200   23.0190 N   0  0  0  0  0  0  0  0  0  0  0  0
  -11.6900  -10.2460   19.9100 S   0  0  0  0  0  0  0  0  0  0  0  0
  -10.6980   -8.5360   22.5550 C   0  0  0  0  0  0  0  0  0  0  0  0
  -11.4500   -9.9740   21.0440 C   0  0  0  0  0  0  0  0  0  0  0  0
  -12.4710   -9.4690   21.0230 C   0  0  0  0  0  0  0  0  0  0  0  0
  -10.9650   -9.5750   22.8980 C   0  0  0  0  0  0  0  0  0  0  0  0
  -10.4070  -10.6320   21.8660 O   0  0  0  0  0  0  0  0  0  0  0  0
  -12.7300   -8.6730   21.6020 C   0  0  0  0  0  0  0  0  0  0  0  0
  2  4  1  0
  3  6  1  0
  5  3  1  0
  5  8  1  0
  6  1  1  0
  6  5  1  0
  6  9  1  0
  7  4  1  0
  7  2  1  0
  8  7  1  0
  9  1  1  0
  9  2  1  0
M  END
$$$$

     RDKit          3D

 10  9  0  0  0  0  0  0  0  0999 V2000
  -10.1340   -1.6470   27.5590 C   0  0  0  0  0  0  0  0  0  0  0  0
   -8.3060   -5.1020   29.4430 C   0  0  0  0  0  0  0  0  0  0  0  0
   -8.1500   -3.6620   29.8180 C   0  0  0  0  0  0  0  0  0  0  0  0
   -9.2440   -2.9680   29.3800 C   0  0  0  0  0  0  0  0  0  0  0  0
  -10.7220   -4.8240   28.3350 O   0  0  0  0  0  0  0  0  0  0  0  0
  -11.9080   -4.9420   28.9700 C   0  0  0  0  0  0  0  0  0  0  0  0
   -9.7340   -5.3700   29.2110 C   0  0  0  0  0  0  0  0  0  0  0  0
   -9.0890   -1.9190   28.5010 O   0  0  0  0  0  0  0  0  0  0  0  0
  -12.4800   -1.7270   27.2980 C   0  0  0  0  0  0  0  0  0  0  0  0
  -11.3920   -1.7050   28.2080 O   0  0  0  0  0  0  0  0  0  0  0  0
  1 10  1  0
  1  8  1  0
  2  3  1  0
  4  3  1  0
  5  6  1  0
  5  7  1  0
  7  2  1  0
  8  4  1  0
  9 10  1  0
M  END
$$$$

     RDKit          3D

 20 23  0  0  0  0  0  0  0  0999 V2000
  -10.2880   -7.2830   22.1810 C   0  0  0  0  0  0  0  0  0  0  0  0
  -11.7430   -7.4260   24.4530 C   0  0  0  0  0  0  0  0  0  0  0  0
  -10.0030   -6.5790   26.0780 C   0  0  0  0  0  0  0  0  0  0  0  0
   -8.9970   -6.8190   22.5060 C   0  0  0  0  0  0  0  0  0  0  0  0
  -10.9690   -8.0100   21.6880 C   0  0  0  0  0  0  0  0  0  0  0  0
  -12.8760   -8.5520   22.9300 C   0  0  0  0  0  0  0  0  0  0  0  0
  -12.9990   -9.3410   22.8440 C   0  0  0  0  0  0  0  0  0  0  0  0
  -11.9410   -9.0340   23.6600 C   0  0  0  0  0  0  0  0  0  0  0  0
   -9.9440   -7.9510   24.0370 C   0  0  0  0  0  0  0  0  0  0  0  0
   -8.0090   -6.4960   24.5100 C   0  0  0  0  0  0  0  0  0  0  0  0
   -8.2200   -5.6910   22.4520 C   0  0  0  0  0  0  0  0  0  0  0  0
  -10.5060   -6.8650   24.6440 C   0  0  0  0  0  0  0  0  0  0  0  0
   -7.8940   -8.6040   23.4160 F   0  0  0  0  0  0  0  0  0  0  0  0
   -8.6460   -7.4950   23.6260 C   0  0  0  0  0  0  0  0  0  0  0  0
  -10.5240   -9.3370   24.3840 C   0  0  0  0  0  0  0  0  0  0  0  0
  -12.2940   -8.2850   23.9750 O   0  0  0  0  0  0  0  0  0  0  0  0
   -8.4510   -5.2270   24.5000 O   0  0  0  0  0  0  0  0  0  0  0  0
  -11.1980  -10.3050   23.8070 C   0  0  0  0  0  0  0  0  0  0  0  0
   -8.5370   -7.1110   26.1140 C   0  0  0  0  0  0  0  0  0  0  0  0
   -8.6260   -5.0100   23.6770 C   0  0  0  0  0  0  0  0  0  0  0  0
  2 12  1  0
  3 19  1  0
  4  1  1  0
  4 14  1  0
  5  1  2  0
  7  6  1  0
  8  7  1  0
  8 18  1  0
  8 16  1  0
  8 15  1  0
  9 15  1  0
  9 12  1  0
 10 19  1  0
 11  4  1  0
 11 20  1  0
 12  3  1  0
 13 14  1  0
 14  9  1  0
 14 10  1  0
 16  2  1  0
 17 10  1  0
 18 15  1  0
 20 17  1  0
M  END
$$$$

     RDKit          3D

 20 22  0  0  0  0  0  0  0  0999 V2000
  -10.6240   -5.4260   26.6900 C   0  0  0  0  0  0  0  0  0  0  0  0
  -11.1490   -8.2430   24.8450 F   0  0  0  0  0  0  0  0  0  0  0  0
  -11.5530   -5.3680   25.2680 C   0  0  0  0  0  0  0  0  0  0  0  0
  -10.3150   -5.3390   29.5030 C   0  0  0  0  0  0  0  0  0  0  0  0
  -12.7650   -9.4500   20.8250 C   0  0  0  0  0  0  0  0  0  0  0  0
  -12.0690   -4.8050   26.2300 N   0  0  0  0  0  0  0  0  0  0  0  0
  -16.2390   -9.9750   19.5630 F   0  0  0  0  0  0  0  0  0  0  0  0
  -10.4020   -5.7110   28.1100 C   0  0  0  0  0  0  0  0  0  0  0  0
  -10.8840   -4.5670   28.5670 C   0  0  0  0  0  0  0  0  0  0  0  0
  -13.7340   -9.8950   19.9440 C   0  0  0  0  0  0  0  0  0  0  0  0
  -10.0770   -5.4720   23.3100 O   0  0  0  0  0  0  0  0  0  0  0  0
  -10.6890   -5.9820   25.4630 N   0  0  0  0  0  0  0  0  0  0  0  0
  -11.0330   -6.9190   24.9270 C   0  0  0  0  0  0  0  0  0  0  0  0
  -15.0130   -9.5200   20.1380 C   0  0  0  0  0  0  0  0  0  0  0  0
  -15.4100   -8.5630   21.1350 C   0  0  0  0  0  0  0  0  0  0  0  0
  -14.3560   -8.0030   21.8940 C   0  0  0  0  0  0  0  0  0  0  0  0
  -13.0780   -8.6090   21.7660 C   0  0  0  0  0  0  0  0  0  0  0  0
  -10.8090   -6.5860   23.5420 C   0  0  0  0  0  0  0  0  0  0  0  0
  -11.5980   -7.5460   22.5100 C   0  0  0  0  0  0  0  0  0  0  0  0
  -12.1750   -8.2840   22.7710 O   0  0  0  0  0  0  0  0  0  0  0  0
  1  8  1  0
  3 12  1  0
  3  6  1  0
  5 17  1  0
  6  1  1  0
  7 14  1  0
  8  9  1  0
  8  4  1  0
  9  4  1  0
 10 14  1  0
 10  5  2  0
 11 18  1  0
 12  1  1  0
 13  2  1  0
 13 12  1  0
 14 15  2  0
 15 16  1  0
 17 16  2  0
 17 20  1  0
 18 13  1  0
 19 20  1  0
 19 18  2  3
M  END
$$$$

     RDKit          3D

  8  8  0  0  0  0  0  0  0  0999 V2000
  -10.7600   -2.7790   27.0420 O   0  0  0  0  0  0  0  0  0  0  0  0
  -14.5390   -1.3790   27.3110 C   0  0  0  0  0  0  0  0  0  0  0  0
  -13.5830   -3.4770   26.6100 C   0  0  0  0  0  0  0  0  0  0  0  0
  -12.9740   -3.2040   27.7650 C   0  0  0  0  0  0  0  0  0  0  0  0
  -13.2320   -2.0430   26.9200 N   0  0  0  0  0  0  0  0  0  0  0  0
  -10.8200   -3.8810   28.9630 O   0  0  0  0  0  0  0  0  0  0  0  0
  -11.3100   -3.3600   27.8920 C   0  0  0  0  0  0  0  0  0  0  0  0
  -15.1280   -2.2110   28.3860 O   0  0  0  0  0  0  0  0  0  0  0  0
  1  7  2  0
  2  8  1  0
  3  5  1  0
  3  4  1  0
  4  7  1  0
  5  2  1  0
  5  4  1  0
  7  6  1  0
M  END
$$$$

     RDKit          3D

 18 22  0  0  0  0  0  0  0  0999 V2000
  -12.2710   -7.0260   23.3150 C   0  0  0  0  0  0  0  0  0  0  0  0
  -12.4810  -10.1310   21.9750 C   0  0  0  0  0  0  0  0  0  0  0  0
  -12.4260   -9.4360   21.3810 C   0  0  0  0  0  0  0  0  0  0  0  0
  -10.8960   -8.4630   24.2040 C   0  0  0  0  0  0  0  0  0  0  0  0
  -12.2390   -5.9750   23.9490 C   0  0  0  0  0  0  0  0  0  0  0  0
  -10.1420   -7.3180   22.1340 C   0  0  0  0  0  0  0  0  0  0  0  0
  -11.0540   -8.7460   22.7810 C   0  0  0  0  0  0  0  0  0  0  0  0
  -10.1610   -7.8420   25.4000 C   0  0  0  0  0  0  0  0  0  0  0  0
  -12.6770  -10.0690   20.0510 C   0  0  0  0  0  0  0  0  0  0  0  0
  -11.7790   -6.2070   26.0950 C   0  0  0  0  0  0  0  0  0  0  0  0
  -10.1100   -9.3740   23.3240 S   0  0  0  0  0  0  0  0  0  0  0  0
  -11.5060   -9.8150   22.3300 C   0  0  0  0  0  0  0  0  0  0  0  0
  -11.5350   -7.1720   23.7500 C   0  0  0  0  0  0  0  0  0  0  0  0
  -12.2290   -8.3830   24.6240 S   0  0  0  0  0  0  0  0  0  0  0  0
  -10.8470   -6.6260   25.2870 C   0  0  0  0  0  0  0  0  0  0  0  0
  -11.1540   -7.4610   22.4600 C   0  0  0  0  0  0  0  0  0  0  0  0
  -12.4580   -5.6330   25.1360 C   0  0  0  0  0  0  0  0  0  0  0  0
  -10.8980   -8.0230   21.2750 S   0  0  0  0  0  0  0  0  0  0  0  0
  1  5  1  0
  2 12  1  0
  3  9  1  0
  3  2  1  0
  4 11  1  0
  4 14  1  0
  5 17  1  0
  7 12  1  0
  7 11  1  0
  7  4  1  0
 13  1  1  0
 13  4  1  0
 13 14  1  0
 15  8  1  0
 15 10  1  0
 16  6  1  0
 16  7  1  0
 16 13  1  0
 17 10  1  0
 18  3  1  0
 18  6  1  0
 18 16  1  0
M  END
$$$$

     RDKit          3D

  8  8  0  0  0  0  0  0  0  0999 V2000
   -7.8410   -3.6910   30.1240 C   0  0  0  0  0  0  0  0  0  0  0  0
   -8.6490   -4.5430   27.4620 O   0  0  0  0  0  0  0  0  0  0  0  0
   -7.0070   -4.5310   29.4690 C   0  0  0  0  0  0  0  0  0  0  0  0
   -9.7860   -4.5150   28.8650 P   0  0  0  0  0  0  0  0  0  0  0  0
   -7.6620   -4.5550   27.9610 C   0  0  0  0  0  0  0  0  0  0  0  0
   -8.9890   -3.5750   29.3590 O   0  0  0  0  0  0  0  0  0  0  0  0
   -9.8050   -5.7820   29.6470 O   0  0  0  0  0  0  0  0  0  0  0  0
  -11.0670   -3.9810   28.2870 O   0  0  0  0  0  0  0  0  0  0  0  0
  2  5  1  0
  2  4  1  0
  3  1  1  0
  4  6  1  0
  4  7  1  0
  5  3  1  0
  6  1  1  0
  8  4  2  0
M  END
$$$$

     RDKit          3D

 19 21  0  0  0  0  0  0  0  0999 V2000
  -12.0190   -8.5640   23.6090 C   0  0  0  0  0  0  0  0  0  0  0  0
  -15.1580   -7.7030   22.0610 C   0  0  0  0  0  0  0  0  0  0  0  0
  -13.6870  -10.0590   25.4450 F   0  0  0  0  0  0  0  0  0  0  0  0
  -11.2130  -11.1610   23.7310 C   0  0  0  0  0  0  0  0  0  0  0  0
  -12.6410   -7.0080   23.8860 C   0  0  0  0  0  0  0  0  0  0  0  0
  -11.5410   -9.2110   22.0340 S   0  0  0  0  0  0  0  0  0  0  0  0
  -13.7310   -6.3730   24.2070 C   0  0  0  0  0  0  0  0  0  0  0  0
  -12.0490   -9.9670   24.4400 C   0  0  0  0  0  0  0  0  0  0  0  0
  -12.2000   -9.4390   23.1690 C   0  0  0  0  0  0  0  0  0  0  0  0
  -13.8400   -8.8470   25.1580 C   0  0  0  0  0  0  0  0  0  0  0  0
  -13.0200   -8.5120   23.5260 C   0  0  0  0  0  0  0  0  0  0  0  0
  -14.4540   -9.1710   23.5890 C   0  0  0  0  0  0  0  0  0  0  0  0
  -10.0420   -9.7560   23.8100 S   0  0  0  0  0  0  0  0  0  0  0  0
  -10.1550   -8.2250   23.9820 O   0  0  0  0  0  0  0  0  0  0  0  0
  -15.3360   -7.8240   23.4270 C   0  0  0  0  0  0  0  0  0  0  0  0
  -14.2640   -7.5690   25.5090 F   0  0  0  0  0  0  0  0  0  0  0  0
  -14.5590   -7.0820   23.0660 C   0  0  0  0  0  0  0  0  0  0  0  0
  -16.2490   -8.1010   24.0780 F   0  0  0  0  0  0  0  0  0  0  0  0
  -11.8420   -9.8860   23.5730 C   0  0  0  0  0  0  0  0  0  0  0  0
  2 15  1  0
  5  7  1  0
  9  6  1  0
  9 11  1  0
  9 19  1  0
  9  1  1  0
 10  3  1  0
 10 16  1  0
 11 12  1  0
 11  1  1  0
 11  5  1  0
 12 10  1  0
 13 14  2  0
 15 12  1  0
 15 18  1  0
 17  2  1  0
 17 15  1  0
 17  7  1  0
 19  4  1  0
 19 13  1  0
 19  8  1  0
M  END
$$$$

     RDKit          3D

 21 24  0  0  0  0  0  0  0  0999 V2000
   -9.6170   -8.4370   24.3650 C   0  0  0  0  0  0  0  0  0  0  0  0
  -11.2930   -8.5050   23.7970 C   0  0  0  0  0  0  0  0  0  0  0  0
  -16.2520   -8.5380   23.2030 C   0  0  0  0  0  0  0  0  0  0  0  0
  -11.7800   -9.3170   22.9350 C   0  0  0  0  0  0  0  0  0  0  0  0
   -8.9240   -7.5600   23.8620 C   0  0  0  0  0  0  0  0  0  0  0  0
  -14.0590   -9.4350   21.5020 C   0  0  0  0  0  0  0  0  0  0  0  0
   -9.8970   -7.0550   22.5470 C   0  0  0  0  0  0  0  0  0  0  0  0
  -16.4090   -9.0630   21.8400 C   0  0  0  0  0  0  0  0  0  0  0  0
  -13.8370   -7.8360   24.4250 C   0  0  0  0  0  0  0  0  0  0  0  0
   -7.0610   -6.9530   25.5380 C   0  0  0  0  0  0  0  0  0  0  0  0
  -10.7610   -7.9910   23.5790 C   0  0  0  0  0  0  0  0  0  0  0  0
  -14.8680   -8.2850   23.4650 C   0  0  0  0  0  0  0  0  0  0  0  0
  -12.6470   -8.1550   24.1750 C   0  0  0  0  0  0  0  0  0  0  0  0
   -7.2170   -6.4770   23.0840 C   0  0  0  0  0  0  0  0  0  0  0  0
  -12.7140   -9.8020   22.8500 C   0  0  0  0  0  0  0  0  0  0  0  0
   -5.9080   -5.7460   23.3110 C   0  0  0  0  0  0  0  0  0  0  0  0
   -5.0860   -5.7530   24.5740 O   0  0  0  0  0  0  0  0  0  0  0  0
  -14.2540   -9.3890   22.4750 C   0  0  0  0  0  0  0  0  0  0  0  0
  -15.5550  -10.2710   22.4300 C   0  0  0  0  0  0  0  0  0  0  0  0
   -7.9870   -6.9810   24.2290 C   0  0  0  0  0  0  0  0  0  0  0  0
   -6.1820   -5.7770   25.7470 C   0  0  0  0  0  0  0  0  0  0  0  0
  2  4  1  0
  2 13  1  0
  3 12  1  0
  5 20  1  0
  5  1  1  0
  7  5  1  0
  8 19  1  0
  8  3  1  0
 10 21  1  0
 11  7  1  0
 11  2  1  0
 11  1  1  0
 12  9  2  0
 13  9  1  0
 14 16  1  0
 14 20  2  0
 15  4  1  0
 16 17  1  0
 17 21  1  0
 18  6  1  0
 18 15  1  0
 18 12  1  0
 19 18  1  0
 20 10  1  0
M  END
$$$$

     RDKit          3D

 11 13  0  0  0  0  0  0  0  0999 V2000
  -12.2330  -11.8710   20.8510 C   0  0  0  0  0  0  0  0  0  0  0  0
  -13.3380  -10.4110   21.2860 C   0  0  0  0  0  0  0  0  0  0  0  0
  -12.8040  -10.8430   20.7180 C   0  0  0  0  0  0  0  0  0  0  0  0
  -14.2440   -9.4880   22.2870 C   0  0  0  0  0  0  0  0  0  0  0  0
  -11.5470  -10.6340   20.6150 C   0  0  0  0  0  0  0  0  0  0  0  0
  -11.8880   -9.9320   20.6340 C   0  0  0  0  0  0  0  0  0  0  0  0
  -12.3580   -9.6810   21.7230 C   0  0  0  0  0  0  0  0  0  0  0  0
  -13.6390  -10.1100   22.3110 C   0  0  0  0  0  0  0  0  0  0  0  0
  -13.3430  -12.1910   22.6220 O   0  0  0  0  0  0  0  0  0  0  0  0
  -13.6480   -9.8520   21.9060 C   0  0  0  0  0  0  0  0  0  0  0  0
  -12.9300  -11.2060   22.2690 C   0  0  0  0  0  0  0  0  0  0  0  0
  1 11  1  0
  2 10  1  0
  3  1  1  0
  3  2  1  0
  5  6  1  0
  5  3  1  0
  5  1  1  0
  6  7  1  0
  7 10  1  0
 10  4  1  0
 10  8  1  0
 11  8  1  0
 11  9  1  0
M  END
$$$$

     RDKit          3D

 18 22  0  0  0  0  0  0  0  0999 V2000
  -11.9050   -8.7310   20.3810 S   0  0  0  0  0  0  0  0  0  0  0  0
  -13.1370  -10.2170   23.8620 C   0  0  0  0  0  0  0  0  0  0  0  0
  -10.9990   -9.3250   24.0510 O   0  0  0  0  0  0  0  0  0  0  0  0
  -12.0250  -12.4940   22.7550 F   0  0  0  0  0  0  0  0  0  0  0  0
  -11.5020   -7.9270   23.3580 C   0  0  0  0  0  0  0  0  0  0  0  0
  -11.9520  -11.7350   21.7660 O   0  0  0  0  0  0  0  0  0  0  0  0
  -12.6110   -9.9430   22.6980 C   0  0  0  0  0  0  0  0  0  0  0  0
  -13.6730   -8.9410   22.6130 S   0  0  0  0  0  0  0  0  0  0  0  0
  -11.4930   -6.7860   23.4640 O   0  0  0  0  0  0  0  0  0  0  0  0
   -9.9810   -6.1760   25.1340 C   0  0  0  0  0  0  0  0  0  0  0  0
   -9.0440   -7.9820   23.6260 C   0  0  0  0  0  0  0  0  0  0  0  0
  -12.1720   -9.6740   21.7520 C   0  0  0  0  0  0  0  0  0  0  0  0
  -12.8090  -11.0920   21.3120 S   0  0  0  0  0  0  0  0  0  0  0  0
  -11.4560   -8.3100   22.0460 C   0  0  0  0  0  0  0  0  0  0  0  0
  -10.0930   -6.8340   23.7610 C   0  0  0  0  0  0  0  0  0  0  0  0
   -9.4810   -5.5930   23.7900 C   0  0  0  0  0  0  0  0  0  0  0  0
   -9.6810   -9.3740   23.4810 C   0  0  0  0  0  0  0  0  0  0  0  0
  -12.2190   -8.7880   22.8070 C   0  0  0  0  0  0  0  0  0  0  0  0
  5  9  1  0
  5  3  1  0
  6  4  1  0
  7 18  1  0
  7  2  1  0
  8  7  1  0
  9 15  1  0
 11 15  1  0
 12 13  1  0
 12 14  1  0
 12  7  1  0
 12 18  1  0
 13  6  1  0
 14  1  1  0
 14 18  1  0
 14  5  1  0
 15 16  1  0
 15 10  1  0
 16 10  1  0
 17 11  1  0
 17  3  1  0
 18  5  1  0
M  END
$$$$

     RDKit          3D

 18 21  0  0  0  0  0  0  0  0999 V2000
  -10.1050   -8.5000   23.0250 C   0  0  0  0  0  0  0  0  0  0  0  0
  -11.8760   -8.9600   22.2980 P   0  0  0  0  0  0  0  0  0  0  0  0
  -10.7470   -7.6070   24.1810 C   0  0  0  0  0  0  0  0  0  0  0  0
   -9.9640   -7.7530   24.0480 C   0  0  0  0  0  0  0  0  0  0  0  0
  -12.9790   -8.9160   22.9020 C   0  0  0  0  0  0  0  0  0  0  0  0
  -13.2690   -9.8310   22.1440 C   0  0  0  0  0  0  0  0  0  0  0  0
   -9.3180   -7.8160   23.4500 C   0  0  0  0  0  0  0  0  0  0  0  0
  -11.2700   -8.6170   23.4640 C   0  0  0  0  0  0  0  0  0  0  0  0
  -10.2740  -10.7940   23.9490 C   0  0  0  0  0  0  0  0  0  0  0  0
  -12.8160  -10.5070   24.0970 C   0  0  0  0  0  0  0  0  0  0  0  0
  -12.0520   -9.8370   21.7140 C   0  0  0  0  0  0  0  0  0  0  0  0
  -10.8620   -9.1930   22.3280 C   0  0  0  0  0  0  0  0  0  0  0  0
  -10.2670   -9.5220   23.3610 C   0  0  0  0  0  0  0  0  0  0  0  0
  -12.6950   -9.5710   23.4880 C   0  0  0  0  0  0  0  0  0  0  0  0
  -10.0980  -11.3950   23.6050 C   0  0  0  0  0  0  0  0  0  0  0  0
   -8.9510   -8.4940   23.3930 C   0  0  0  0  0  0  0  0  0  0  0  0
  -11.4940  -10.6400   23.7960 C   0  0  0  0  0  0  0  0  0  0  0  0
   -9.4470  -10.4480   23.1360 C   0  0  0  0  0  0  0  0  0  0  0  0
  1 13  1  0
  1  7  1  0
  2 11  1  0
  2 12  1  0
  2  5  1  0
  4  3  1  0
  5  6  1  0
  5 14  1  0
  7 16  1  0
  7  4  1  0
  8 14  1  0
  8  3  1  0
 11  6  1  0
 12 13  1  0
 12  8  1  0
 13  8  1  0
 14 10  1  0
 15  9  1  0
 17  9  1  0
 17 10  1  0
 18  9  1  0
M  END
$$$$

     RDKit          3D

 17 19  0  0  0  0  0  0  0  0999 V2000
  -11.9830   -6.1720   24.4370 C   0  0  0  0  0  0  0  0  0  0  0  0
  -13.6630   -7.5720   25.8790 C   0  0  0  0  0  0  0  0  0  0  0  0
  -10.8520   -7.8300   22.3350 C   0  0  0  0  0  0  0  0  0  0  0  0
  -11.7810  -10.8630   21.9480 C   0  0  0  0  0  0  0  0  0  0  0  0
  -11.6060   -8.9020   21.5920 C   0  0  0  0  0  0  0  0  0  0  0  0
  -13.7040  -11.8220   22.7330 C   0  0  0  0  0  0  0  0  0  0  0  0
  -12.3010   -6.8320   25.7840 C   0  0  0  0  0  0  0  0  0  0  0  0
  -12.8050   -5.6180   26.7190 C   0  0  0  0  0  0  0  0  0  0  0  0
  -12.1230  -10.0170   22.4090 C   0  0  0  0  0  0  0  0  0  0  0  0
  -11.7700   -8.7460   24.2990 C   0  0  0  0  0  0  0  0  0  0  0  0
  -13.8590  -11.1410   23.7480 C   0  0  0  0  0  0  0  0  0  0  0  0
  -12.1470   -7.4220   24.3720 C   0  0  0  0  0  0  0  0  0  0  0  0
  -12.7480   -9.8280   23.6050 C   0  0  0  0  0  0  0  0  0  0  0  0
  -10.2770   -8.4720   23.6920 C   0  0  0  0  0  0  0  0  0  0  0  0
  -10.9190   -9.5430   20.4710 O   0  0  0  0  0  0  0  0  0  0  0  0
  -12.3480  -11.5030   22.0650 C   0  0  0  0  0  0  0  0  0  0  0  0
  -14.3680   -7.4910   25.1400 O   0  0  0  0  0  0  0  0  0  0  0  0
  1  7  1  0
  3 14  1  0
  4 16  1  0
  5 15  1  0
  5  3  1  0
  5  9  1  0
  6 11  1  0
  7  2  1  0
  7  8  1  0
  9  4  1  0
  9 13  1  0
 10 14  1  0
 10 12  1  0
 12  1  1  0
 12  7  1  0
 13 11  1  0
 13 10  1  0
 16  6  1  0
 17  2  2  0
M  END
$$$$

     RDKit          3D

  5  4  0  0  0  0  0  0  0  0999 V2000
  -10.2120   -5.3830   28.2410 O   0  0  0  0  0  0  0  0  0  0  0  0
  -12.3000   -4.3140   28.6950 C   0  0  0  0  0  0  0  0  0  0  0  0
  -11.6400   -3.4010   28.7750 O   0  0  0  0  0  0  0  0  0  0  0  0
  -11.5690   -5.6530   28.6850 C   0  0  0  0  0  0  0  0  0  0  0  0
  -13.3190   -4.0700   28.5440 O   0  0  0  0  0  0  0  0  0  0  0  0
  1  4  1  0
  2  3  1  0
  4  2  1  0
  5  2  2  0
M  END
$$$$

     RDKit          3D

  9  8  0  0  0  0  0  0  0  0999 V2000
   -9.2150   -5.8870   28.3250 C   0  0  0  0  0  0  0  0  0  0  0  0
  -10.1940   -4.8910   29.0100 C   0  0  0  0  0  0  0  0  0  0  0  0
   -6.8740   -5.5960   27.6450 N   0  0  0  0  0  0  0  0  0  0  0  0
   -5.6580   -4.9130   28.1240 C   0  0  0  0  0  0  0  0  0  0  0  0
   -6.9670   -6.1620   26.2790 C   0  0  0  0  0  0  0  0  0  0  0  0
  -10.6960   -4.0710   28.4180 O   0  0  0  0  0  0  0  0  0  0  0  0
   -7.8750   -5.3630   28.4840 C   0  0  0  0  0  0  0  0  0  0  0  0
   -7.6450   -4.7960   29.5420 O   0  0  0  0  0  0  0  0  0  0  0  0
  -10.2960   -5.1600   30.2430 O   0  0  0  0  0  0  0  0  0  0  0  0
  1  7  1  0
  1  2  1  0
  2  9  1  0
  3  4  1  0
  3  7  1  0
  5  3  1  0
  6  2  2  0
  7  8  2  0
M  END
$$$$

     RDKit          3D

  9  9  0  0  0  0  0  0  0  0999 V2000
  -10.5440   -8.5400   23.5530 C   0  0  0  0  0  0  0  0  0  0  0  0
  -10.8570   -7.1900   23.7470 C   0  0  0  0  0  0  0  0  0  0  0  0
  -10.9110   -6.5910   22.5660 O   0  0  0  0  0  0  0  0  0  0  0  0
  -12.1240   -5.5250   26.3200 C   0  0  0  0  0  0  0  0  0  0  0  0
  -12.6030   -6.2740   25.3480 C   0  0  0  0  0  0  0  0  0  0  0  0
   -9.6930   -6.5270   24.5270 C   0  0  0  0  0  0  0  0  0  0  0  0
   -9.8330   -5.7110   25.8680 C   0  0  0  0  0  0  0  0  0  0  0  0
  -10.9050   -4.3780   25.8940 S   0  0  0  0  0  0  0  0  0  0  0  0
  -12.1260   -6.8870   24.2380 C   0  0  0  0  0  0  0  0  0  0  0  0
  2  1  1  0
  2  9  1  0
  2  6  1  0
  3  2  1  0
  5  4  1  0
  6  7  1  0
  7  8  1  0
  8  4  1  0
  9  5  2  0
M  END
$$$$
