
     RDKit          3D

 12 14  0  0  0  0  0  0  0  0999 V2000
   10.7730  -33.1430  -30.4600 C   0  0  0  0  0  0  0  0  0  0  0  0
   11.6240  -34.2200  -33.7330 C   0  0  0  0  0  0  0  0  0  0  0  0
    8.0180  -33.6090  -33.4420 C   0  0  0  0  0  0  0  0  0  0  0  0
   10.1740  -34.0380  -33.6720 N   0  0  0  0  0  0  0  0  0  0  0  0
    6.6330  -33.2460  -33.6300 C   0  0  0  0  0  0  0  0  0  0  0  0
   11.1210  -33.5090  -31.6460 C   0  0  0  0  0  0  0  0  0  0  0  0
   11.6430  -32.9180  -28.9390 Cl  0  0  0  0  0  0  0  0  0  0  0  0
    8.8500  -34.0860  -34.2330 N   0  0  0  0  0  0  0  0  0  0  0  0
    9.9080  -33.5660  -32.4100 C   0  0  0  0  0  0  0  0  0  0  0  0
    9.1780  -32.4620  -30.2560 S   0  0  0  0  0  0  0  0  0  0  0  0
   12.2040  -33.8320  -32.5560 C   0  0  0  0  0  0  0  0  0  0  0  0
    8.6000  -33.1990  -32.2080 C   0  0  0  0  0  0  0  0  0  0  0  0
  1 10  1  0
  1  7  1  0
  2  4  1  0
  2 11  2  0
  4  9  1  0
  5  3  1  0
  6  1  1  0
  8  4  1  0
  8  3  2  0
  9 12  1  0
  9  6  2  0
 11  6  1  0
 12  3  1  0
 12 10  1  0
M  END
$$$$

     RDKit          3D

 20 22  0  0  0  0  0  0  0  0999 V2000
    4.9200  -34.5420  -35.2990 C   0  0  0  0  0  0  0  0  0  0  0  0
   11.7780  -32.4970  -28.2910 C   0  0  0  0  0  0  0  0  0  0  0  0
    8.4600  -34.5920  -33.4910 C   0  0  0  0  0  0  0  0  0  0  0  0
    4.3640  -33.4290  -34.5500 C   0  0  0  0  0  0  0  0  0  0  0  0
    6.2880  -34.8960  -34.9790 C   0  0  0  0  0  0  0  0  0  0  0  0
    3.8130  -35.0480  -36.1120 C   0  0  0  0  0  0  0  0  0  0  0  0
   10.4470  -32.6040  -29.0260 C   0  0  0  0  0  0  0  0  0  0  0  0
   10.8580  -33.8410  -33.3060 C   0  0  0  0  0  0  0  0  0  0  0  0
    6.3870  -33.0560  -33.3060 C   0  0  0  0  0  0  0  0  0  0  0  0
    2.8250  -34.0030  -36.1450 C   0  0  0  0  0  0  0  0  0  0  0  0
    3.1120  -33.3330  -35.0350 O   0  0  0  0  0  0  0  0  0  0  0  0
   10.5240  -33.0010  -30.5230 C   0  0  0  0  0  0  0  0  0  0  0  0
    5.0340  -32.6970  -33.6140 C   0  0  0  0  0  0  0  0  0  0  0  0
    9.3730  -33.3310  -31.3120 C   0  0  0  0  0  0  0  0  0  0  0  0
    9.5510  -33.8360  -32.7000 C   0  0  0  0  0  0  0  0  0  0  0  0
    8.6890  -35.8460  -33.5960 O   0  0  0  0  0  0  0  0  0  0  0  0
   11.9160  -33.0900  -31.0560 C   0  0  0  0  0  0  0  0  0  0  0  0
    6.9930  -34.1520  -33.9430 C   0  0  0  0  0  0  0  0  0  0  0  0
   13.2290  -33.3040  -33.0980 O   0  0  0  0  0  0  0  0  0  0  0  0
   11.9700  -33.4630  -32.5000 C   0  0  0  0  0  0  0  0  0  0  0  0
  1  5  2  0
  1  4  1  0
  3 15  1  0
  4 13  2  0
  5 18  1  0
  6  1  1  0
  7  2  1  0
  8 15  2  0
  8 20  1  0
 10  6  1  0
 10 11  1  0
 11  4  1  0
 12  7  1  0
 13  9  1  0
 14 12  2  0
 15 14  1  0
 16  3  2  0
 17 12  1  0
 18  3  1  0
 18  9  2  0
 19 20  1  0
 20 17  2  0
M  END
$$$$

     RDKit          3D

 16 19  0  0  0  0  0  0  0  0999 V2000
    5.2330  -33.6500  -34.2620 C   0  0  0  0  0  0  0  0  0  0  0  0
    5.7960  -34.9370  -34.9850 C   0  0  0  0  0  0  0  0  0  0  0  0
    7.9030  -34.5470  -33.8290 C   0  0  0  0  0  0  0  0  0  0  0  0
   11.1730  -33.2440  -29.6850 C   0  0  0  0  0  0  0  0  0  0  0  0
   11.9310  -32.5810  -30.3490 O   0  0  0  0  0  0  0  0  0  0  0  0
   10.4970  -33.9630  -30.1870 O   0  0  0  0  0  0  0  0  0  0  0  0
   11.9550  -33.3230  -31.8650 C   0  0  0  0  0  0  0  0  0  0  0  0
    6.0870  -32.9280  -33.4240 C   0  0  0  0  0  0  0  0  0  0  0  0
    9.2810  -35.2150  -33.5130 C   0  0  0  0  0  0  0  0  0  0  0  0
   10.8570  -34.2380  -31.9780 C   0  0  0  0  0  0  0  0  0  0  0  0
    9.5270  -34.7600  -32.2120 O   0  0  0  0  0  0  0  0  0  0  0  0
   11.6490  -34.3690  -33.4760 S   0  0  0  0  0  0  0  0  0  0  0  0
    3.9470  -33.2990  -34.5250 O   0  0  0  0  0  0  0  0  0  0  0  0
   10.5550  -35.0590  -34.3800 C   0  0  0  0  0  0  0  0  0  0  0  0
    7.1280  -35.3580  -34.7310 C   0  0  0  0  0  0  0  0  0  0  0  0
    7.3720  -33.4400  -33.2480 C   0  0  0  0  0  0  0  0  0  0  0  0
  1  8  1  0
  2 15  1  0
  2  1  2  0
  3 16  1  0
  5  4  1  0
  6  4  1  0
  7  5  1  0
  8 16  2  0
  9  3  1  0
  9 11  1  0
 10 11  1  0
 10  7  1  0
 10  6  1  0
 12 14  1  0
 12 10  1  0
 12  7  1  0
 13  1  1  0
 14  9  1  0
 15  3  2  0
M  END
$$$$

     RDKit          3D

 22 23  0  0  0  0  0  0  0  0999 V2000
   13.5190  -31.9620  -27.0430 O   0  0  0  0  0  0  0  0  0  0  0  0
    4.1110  -33.5330  -34.0220 N   0  0  0  0  0  0  0  0  0  0  0  0
    6.1630  -32.9260  -32.9240 C   0  0  0  0  0  0  0  0  0  0  0  0
   11.7940  -32.3080  -28.6250 C   0  0  0  0  0  0  0  0  0  0  0  0
   12.2410  -32.3310  -27.0840 C   0  0  0  0  0  0  0  0  0  0  0  0
   11.6050  -33.7670  -31.9580 C   0  0  0  0  0  0  0  0  0  0  0  0
    6.8310  -33.3210  -33.9880 C   0  0  0  0  0  0  0  0  0  0  0  0
    6.9600  -34.3690  -33.8790 C   0  0  0  0  0  0  0  0  0  0  0  0
    3.3500  -34.1450  -35.8690 C   0  0  0  0  0  0  0  0  0  0  0  0
   10.9090  -34.3320  -32.9540 C   0  0  0  0  0  0  0  0  0  0  0  0
   11.0580  -33.6450  -30.4980 C   0  0  0  0  0  0  0  0  0  0  0  0
    9.1990  -35.7120  -34.1290 C   0  0  0  0  0  0  0  0  0  0  0  0
    3.2780  -33.0680  -35.0380 C   0  0  0  0  0  0  0  0  0  0  0  0
   10.3460  -35.0560  -33.8680 C   0  0  0  0  0  0  0  0  0  0  0  0
   10.1960  -34.4260  -31.4270 C   0  0  0  0  0  0  0  0  0  0  0  0
    8.1490  -35.0970  -33.6710 C   0  0  0  0  0  0  0  0  0  0  0  0
   12.7240  -33.2600  -32.3720 C   0  0  0  0  0  0  0  0  0  0  0  0
   11.3850  -35.3010  -34.7160 O   0  0  0  0  0  0  0  0  0  0  0  0
   12.7130  -33.6240  -33.4620 O   0  0  0  0  0  0  0  0  0  0  0  0
    3.8020  -33.4450  -37.3090 C   0  0  0  0  0  0  0  0  0  0  0  0
   12.1000  -33.4480  -29.4500 O   0  0  0  0  0  0  0  0  0  0  0  0
    4.8150  -32.7250  -33.2650 C   0  0  0  0  0  0  0  0  0  0  0  0
  2 22  1  0
  4  5  1  0
  5  1  1  0
  6 17  1  0
  6 15  1  0
  6 11  1  0
  7  8  1  0
  7  3  1  0
  8 16  1  0
  9 13  1  0
 10 14  1  0
 10  6  1  0
 10 15  1  0
 11 21  1  0
 12 14  1  0
 12 16  1  0
 13  2  1  0
 14 18  1  0
 15 11  1  0
 19 17  1  0
 20  9  1  0
 21  4  1  0
 22  3  1  0
M  END
$$$$

     RDKit          3D

 12 12  0  0  0  0  0  0  0  0999 V2000
    5.3600  -32.4800  -33.1160 C   0  0  0  0  0  0  0  0  0  0  0  0
    8.5860  -33.8470  -33.9190 C   0  0  0  0  0  0  0  0  0  0  0  0
    6.0090  -31.5160  -32.0710 C   0  0  0  0  0  0  0  0  0  0  0  0
    9.8010  -35.4720  -34.6960 C   0  0  0  0  0  0  0  0  0  0  0  0
    7.2620  -31.5020  -31.7170 C   0  0  0  0  0  0  0  0  0  0  0  0
    7.5710  -33.2050  -33.2940 C   0  0  0  0  0  0  0  0  0  0  0  0
    9.2350  -34.1440  -33.6930 C   0  0  0  0  0  0  0  0  0  0  0  0
    8.0320  -32.4140  -32.2380 C   0  0  0  0  0  0  0  0  0  0  0  0
   10.3430  -35.3150  -33.4830 C   0  0  0  0  0  0  0  0  0  0  0  0
    9.6130  -36.1170  -34.0230 C   0  0  0  0  0  0  0  0  0  0  0  0
    9.7010  -35.2120  -32.6360 C   0  0  0  0  0  0  0  0  0  0  0  0
    6.2570  -33.3070  -33.7200 C   0  0  0  0  0  0  0  0  0  0  0  0
  1  3  1  0
  2  7  1  0
  2  6  1  0
  3  5  2  0
  4 10  1  0
  6  8  2  0
  7 11  1  0
  8  5  1  0
  9 11  1  0
 10  9  1  0
 12  6  1  0
 12  1  2  0
M  END
$$$$

     RDKit          3D

 10 10  0  0  0  0  0  0  0  0999 V2000
   10.7150  -34.5290  -32.7930 C   0  0  0  0  0  0  0  0  0  0  0  0
    9.9660  -35.2790  -33.7610 C   0  0  0  0  0  0  0  0  0  0  0  0
    8.1900  -31.8440  -30.7050 C   0  0  0  0  0  0  0  0  0  0  0  0
    8.6300  -34.9890  -33.9690 C   0  0  0  0  0  0  0  0  0  0  0  0
   10.0900  -33.5130  -32.1650 C   0  0  0  0  0  0  0  0  0  0  0  0
    8.8060  -33.1930  -32.4430 C   0  0  0  0  0  0  0  0  0  0  0  0
   10.5430  -36.3640  -34.2760 N   0  0  0  0  0  0  0  0  0  0  0  0
    8.0190  -33.9730  -33.3090 C   0  0  0  0  0  0  0  0  0  0  0  0
    8.1830  -32.1070  -31.9360 O   0  0  0  0  0  0  0  0  0  0  0  0
    6.7750  -33.6460  -33.5360 O   0  0  0  0  0  0  0  0  0  0  0  0
  1  5  1  0
  2  1  2  0
  4  2  1  0
  4  8  2  0
  6  5  2  0
  6  9  1  0
  7  2  1  0
  8  6  1  0
  9  3  1  0
 10  8  1  0
M  END
$$$$

     RDKit          3D

 23 25  0  0  0  0  0  0  0  0999 V2000
    8.4010  -33.2820  -32.7820 C   0  0  0  0  0  0  0  0  0  0  0  0
    6.8350  -34.2430  -34.0620 C   0  0  0  0  0  0  0  0  0  0  0  0
    3.6560  -32.7450  -34.3430 O   0  0  0  0  0  0  0  0  0  0  0  0
    6.5990  -35.2880  -34.9390 C   0  0  0  0  0  0  0  0  0  0  0  0
    5.7640  -33.3830  -33.8220 C   0  0  0  0  0  0  0  0  0  0  0  0
   11.2550  -33.5470  -30.1890 C   0  0  0  0  0  0  0  0  0  0  0  0
    9.4380  -33.3430  -31.9590 C   0  0  0  0  0  0  0  0  0  0  0  0
    8.0320  -34.5040  -33.7130 C   0  0  0  0  0  0  0  0  0  0  0  0
   10.1200  -33.1700  -29.7500 C   0  0  0  0  0  0  0  0  0  0  0  0
    9.9290  -35.5080  -34.7040 C   0  0  0  0  0  0  0  0  0  0  0  0
   10.9290  -33.9660  -32.1280 C   0  0  0  0  0  0  0  0  0  0  0  0
   11.2640  -34.1290  -31.7910 C   0  0  0  0  0  0  0  0  0  0  0  0
    9.1680  -35.2260  -34.0520 C   0  0  0  0  0  0  0  0  0  0  0  0
    4.5580  -33.5470  -34.4600 C   0  0  0  0  0  0  0  0  0  0  0  0
   11.2330  -34.2440  -33.4500 C   0  0  0  0  0  0  0  0  0  0  0  0
    7.3170  -32.3950  -32.5500 C   0  0  0  0  0  0  0  0  0  0  0  0
    9.0350  -32.9150  -30.6740 C   0  0  0  0  0  0  0  0  0  0  0  0
   10.6630  -34.6910  -33.8760 C   0  0  0  0  0  0  0  0  0  0  0  0
   12.1550  -33.8490  -31.8770 O   0  0  0  0  0  0  0  0  0  0  0  0
    4.4030  -34.6220  -35.3100 C   0  0  0  0  0  0  0  0  0  0  0  0
    5.9930  -32.3830  -32.9260 N   0  0  0  0  0  0  0  0  0  0  0  0
   10.2600  -34.4310  -32.9010 C   0  0  0  0  0  0  0  0  0  0  0  0
    5.4550  -35.5390  -35.4820 C   0  0  0  0  0  0  0  0  0  0  0  0
  1 16  1  0
  1  7  1  0
  2  5  1  0
  2  8  1  0
  4  2  2  0
  5 21  2  0
  6  9  2  0
  7 17  1  0
  8 13  1  0
  8  1  1  0
 10 13  1  0
 10 18  1  0
 11 12  1  0
 14  3  2  0
 14  5  1  0
 15 19  1  0
 17  9  1  0
 18 15  1  0
 18 22  2  0
 19 12  1  0
 20 14  1  0
 21 16  1  0
 22 11  1  0
 23 20  2  0
 23  4  1  0
M  END
$$$$

     RDKit          3D

 11 12  0  0  0  0  0  0  0  0999 V2000
    7.9480  -34.9280  -34.4950 C   0  0  0  0  0  0  0  0  0  0  0  0
   10.1170  -35.8660  -35.0570 C   0  0  0  0  0  0  0  0  0  0  0  0
    6.5630  -34.7820  -34.8900 C   0  0  0  0  0  0  0  0  0  0  0  0
    8.6680  -35.7090  -35.2270 C   0  0  0  0  0  0  0  0  0  0  0  0
    6.3880  -32.3410  -32.7480 C   0  0  0  0  0  0  0  0  0  0  0  0
    9.7000  -34.1970  -33.3190 C   0  0  0  0  0  0  0  0  0  0  0  0
   10.4710  -35.0450  -34.1330 N   0  0  0  0  0  0  0  0  0  0  0  0
    5.6370  -34.0830  -34.5120 C   0  0  0  0  0  0  0  0  0  0  0  0
    7.5840  -33.2110  -32.8350 C   0  0  0  0  0  0  0  0  0  0  0  0
    5.2290  -32.8980  -33.7420 C   0  0  0  0  0  0  0  0  0  0  0  0
    8.3590  -34.0630  -33.5610 C   0  0  0  0  0  0  0  0  0  0  0  0
  1 11  1  0
  2  7  2  0
  3  8  1  0
  3  1  1  0
  4  2  1  0
  4  1  2  0
  7  6  1  0
  8 10  1  0
  9  5  1  0
 10  5  1  0
 11  6  2  0
 11  9  1  0
M  END
$$$$

     RDKit          3D

 12 12  0  0  0  0  0  0  0  0999 V2000
    9.9410  -35.4580  -33.2370 O   0  0  0  0  0  0  0  0  0  0  0  0
   11.1830  -32.7910  -29.8810 C   0  0  0  0  0  0  0  0  0  0  0  0
    6.4960  -33.3950  -33.6620 C   0  0  0  0  0  0  0  0  0  0  0  0
    6.5680  -34.5940  -34.2420 C   0  0  0  0  0  0  0  0  0  0  0  0
    9.7650  -33.0970  -31.7910 C   0  0  0  0  0  0  0  0  0  0  0  0
    7.1550  -31.6500  -31.9880 C   0  0  0  0  0  0  0  0  0  0  0  0
    7.7860  -35.3790  -34.1100 C   0  0  0  0  0  0  0  0  0  0  0  0
    8.6830  -33.6200  -32.6330 C   0  0  0  0  0  0  0  0  0  0  0  0
    8.8480  -34.8890  -33.3660 C   0  0  0  0  0  0  0  0  0  0  0  0
    9.8050  -33.0920  -30.3390 C   0  0  0  0  0  0  0  0  0  0  0  0
    7.5570  -32.8040  -32.8230 C   0  0  0  0  0  0  0  0  0  0  0  0
   12.0800  -33.3390  -30.8450 O   0  0  0  0  0  0  0  0  0  0  0  0
  3 11  1  0
  4  7  1  0
  4  3  2  0
  5 10  1  0
  7  9  1  0
  8  5  1  0
  9  1  2  0
  9  8  1  0
 10  2  1  0
 11  8  1  0
 11  6  1  0
 12  2  1  0
M  END
$$$$

     RDKit          3D

 19 20  0  0  0  0  0  0  0  0999 V2000
    6.3260  -33.7010  -33.8930 C   0  0  0  0  0  0  0  0  0  0  0  0
    8.6960  -35.1920  -33.6370 C   0  0  0  0  0  0  0  0  0  0  0  0
    9.6550  -35.8830  -33.4440 O   0  0  0  0  0  0  0  0  0  0  0  0
    9.7470  -33.4810  -32.7280 O   0  0  0  0  0  0  0  0  0  0  0  0
   11.9140  -33.5930  -31.6910 C   0  0  0  0  0  0  0  0  0  0  0  0
    6.5830  -34.9430  -34.5570 C   0  0  0  0  0  0  0  0  0  0  0  0
   12.0620  -33.2240  -29.3250 C   0  0  0  0  0  0  0  0  0  0  0  0
   10.6520  -33.2290  -29.2080 C   0  0  0  0  0  0  0  0  0  0  0  0
    4.8350  -34.9670  -36.0080 O   0  0  0  0  0  0  0  0  0  0  0  0
    7.2730  -31.8480  -32.2170 Cl  0  0  0  0  0  0  0  0  0  0  0  0
    8.6050  -33.8630  -33.0860 N   0  0  0  0  0  0  0  0  0  0  0  0
    5.9460  -35.7290  -35.6230 C   0  0  0  0  0  0  0  0  0  0  0  0
    5.1860  -33.0040  -33.8330 O   0  0  0  0  0  0  0  0  0  0  0  0
   10.5100  -33.5290  -31.5780 C   0  0  0  0  0  0  0  0  0  0  0  0
   12.7960  -33.0080  -28.1590 F   0  0  0  0  0  0  0  0  0  0  0  0
    9.9100  -33.3350  -30.3590 C   0  0  0  0  0  0  0  0  0  0  0  0
    7.4620  -33.2610  -33.1010 C   0  0  0  0  0  0  0  0  0  0  0  0
    7.7180  -35.5810  -34.4340 N   0  0  0  0  0  0  0  0  0  0  0  0
   12.6840  -33.3880  -30.5320 C   0  0  0  0  0  0  0  0  0  0  0  0
  1 13  1  0
  1 17  2  0
  2  3  2  0
  2 11  1  0
  4 14  1  0
  5 14  2  0
  5 19  1  0
  6 18  2  0
  6  1  1  0
  7  8  1  0
  7 15  1  0
  9 12  1  0
 11  4  1  0
 12  6  1  0
 14 16  1  0
 16  8  2  0
 17 11  1  0
 17 10  1  0
 18  2  2  0
 19  7  2  0
M  END
$$$$

     RDKit          3D

 23 25  0  0  0  0  0  0  0  0999 V2000
    7.2790  -36.3990  -37.8150 C   0  0  0  0  0  0  0  0  0  0  0  0
   10.8390  -34.0060  -31.9750 C   0  0  0  0  0  0  0  0  0  0  0  0
   11.4790  -31.8950  -26.3690 O   0  0  0  0  0  0  0  0  0  0  0  0
    9.3060  -35.0470  -33.2820 C   0  0  0  0  0  0  0  0  0  0  0  0
   11.0550  -33.8350  -30.8220 N   0  0  0  0  0  0  0  0  0  0  0  0
    7.0260  -33.2420  -33.1510 C   0  0  0  0  0  0  0  0  0  0  0  0
   12.3350  -32.1070  -27.1600 C   0  0  0  0  0  0  0  0  0  0  0  0
    5.2510  -32.8690  -33.5170 C   0  0  0  0  0  0  0  0  0  0  0  0
    9.5350  -34.2390  -32.5530 C   0  0  0  0  0  0  0  0  0  0  0  0
    3.7680  -33.5520  -35.7120 C   0  0  0  0  0  0  0  0  0  0  0  0
    6.1030  -35.1700  -36.0860 O   0  0  0  0  0  0  0  0  0  0  0  0
   13.5190  -32.4600  -26.7760 O   0  0  0  0  0  0  0  0  0  0  0  0
   10.2910  -32.6980  -30.6410 C   0  0  0  0  0  0  0  0  0  0  0  0
    4.9710  -33.5390  -34.7130 N   0  0  0  0  0  0  0  0  0  0  0  0
    6.0560  -34.3820  -35.0250 C   0  0  0  0  0  0  0  0  0  0  0  0
    8.2250  -35.1430  -34.2130 C   0  0  0  0  0  0  0  0  0  0  0  0
    8.2900  -36.0050  -35.3870 C   0  0  0  0  0  0  0  0  0  0  0  0
   10.9080  -31.8350  -29.1490 C   0  0  0  0  0  0  0  0  0  0  0  0
    7.4120  -35.8220  -36.3680 C   0  0  0  0  0  0  0  0  0  0  0  0
    8.6600  -33.5810  -32.5530 C   0  0  0  0  0  0  0  0  0  0  0  0
    7.1230  -34.3220  -34.1370 C   0  0  0  0  0  0  0  0  0  0  0  0
   12.0660  -32.5640  -28.5810 C   0  0  0  0  0  0  0  0  0  0  0  0
    9.3500  -36.7270  -35.4520 O   0  0  0  0  0  0  0  0  0  0  0  0
  1 19  1  0
  2  5  1  0
  4  9  2  0
  5 13  1  0
  6 20  2  0
  7 12  2  0
  7  3  1  0
  8  6  1  0
  9 20  1  0
  9  2  1  0
 10 14  1  0
 11 15  1  0
 13 18  1  0
 14  8  1  0
 15 14  1  0
 15 21  2  0
 16 21  1  0
 16  4  1  0
 17 16  1  0
 18 22  1  0
 19 11  1  0
 19 17  2  0
 21  6  1  0
 22  7  1  0
 23 17  1  0
M  END
$$$$

     RDKit          3D

  8  8  0  0  0  0  0  0  0  0999 V2000
    9.2470  -33.3790  -31.9220 C   0  0  0  0  0  0  0  0  0  0  0  0
    9.9210  -34.7200  -32.1240 C   0  0  0  0  0  0  0  0  0  0  0  0
    8.5460  -32.4260  -32.1070 C   0  0  0  0  0  0  0  0  0  0  0  0
    7.1610  -32.0170  -31.8750 C   0  0  0  0  0  0  0  0  0  0  0  0
    9.1610  -35.3830  -33.1640 C   0  0  0  0  0  0  0  0  0  0  0  0
    9.3270  -35.9880  -34.5190 C   0  0  0  0  0  0  0  0  0  0  0  0
    6.2330  -32.5670  -32.9460 C   0  0  0  0  0  0  0  0  0  0  0  0
    8.8520  -34.7640  -34.4130 C   0  0  0  0  0  0  0  0  0  0  0  0
  2  1  1  0
  3  1  1  0
  3  4  1  0
  5  2  1  0
  6  8  1  0
  6  5  1  0
  7  4  1  0
  8  5  1  0
M  END
$$$$

     RDKit          3D

 17 19  0  0  0  0  0  0  0  0999 V2000
    9.0160  -33.6720  -32.4810 C   0  0  0  0  0  0  0  0  0  0  0  0
    9.8690  -34.8110  -32.2150 C   0  0  0  0  0  0  0  0  0  0  0  0
   11.0840  -33.4390  -30.5610 C   0  0  0  0  0  0  0  0  0  0  0  0
    6.0210  -35.6730  -35.7490 N   0  0  0  0  0  0  0  0  0  0  0  0
    8.4890  -36.0570  -33.8720 C   0  0  0  0  0  0  0  0  0  0  0  0
    7.9090  -33.7370  -33.2600 N   0  0  0  0  0  0  0  0  0  0  0  0
    7.7080  -34.9280  -33.9750 C   0  0  0  0  0  0  0  0  0  0  0  0
    4.2790  -34.3090  -35.3590 C   0  0  0  0  0  0  0  0  0  0  0  0
   10.8210  -34.7800  -31.1860 O   0  0  0  0  0  0  0  0  0  0  0  0
    9.7170  -36.0360  -33.0930 C   0  0  0  0  0  0  0  0  0  0  0  0
    4.7200  -35.4730  -36.0690 C   0  0  0  0  0  0  0  0  0  0  0  0
   10.5110  -37.0080  -33.0330 O   0  0  0  0  0  0  0  0  0  0  0  0
    6.3660  -34.8460  -34.6920 C   0  0  0  0  0  0  0  0  0  0  0  0
    9.7650  -32.6550  -30.3890 C   0  0  0  0  0  0  0  0  0  0  0  0
    9.2230  -32.4180  -31.7520 C   0  0  0  0  0  0  0  0  0  0  0  0
    5.3490  -33.9590  -34.4170 C   0  0  0  0  0  0  0  0  0  0  0  0
    3.9940  -36.3030  -36.9220 N   0  0  0  0  0  0  0  0  0  0  0  0
  1  2  1  0
  1 15  1  0
  2 10  1  0
  2  9  1  0
  3 14  1  0
  4 13  2  0
  5 10  1  0
  6  1  2  0
  7  5  1  0
  7  6  2  0
  8 16  2  0
  9  3  1  0
 10 12  2  0
 11  4  2  0
 11  8  1  0
 13 16  1  0
 13  7  1  0
 15 14  1  0
 17 11  1  0
M  END
$$$$

     RDKit          3D

 17 19  0  0  0  0  0  0  0  0999 V2000
    6.7890  -33.4080  -33.3890 C   0  0  0  0  0  0  0  0  0  0  0  0
    5.5330  -32.8680  -33.5090 C   0  0  0  0  0  0  0  0  0  0  0  0
    7.6300  -32.0100  -31.4170 O   0  0  0  0  0  0  0  0  0  0  0  0
   11.6180  -32.7630  -29.3890 C   0  0  0  0  0  0  0  0  0  0  0  0
   10.2720  -32.4200  -29.9220 C   0  0  0  0  0  0  0  0  0  0  0  0
    9.7920  -33.2610  -31.0200 C   0  0  0  0  0  0  0  0  0  0  0  0
   10.3040  -34.6860  -31.4140 C   0  0  0  0  0  0  0  0  0  0  0  0
    8.7150  -32.7910  -31.8160 C   0  0  0  0  0  0  0  0  0  0  0  0
    9.6250  -35.1310  -32.6700 C   0  0  0  0  0  0  0  0  0  0  0  0
   12.2740  -33.5740  -30.0710 O   0  0  0  0  0  0  0  0  0  0  0  0
    7.8280  -33.0710  -32.4450 N   0  0  0  0  0  0  0  0  0  0  0  0
    5.0320  -34.4240  -35.3960 C   0  0  0  0  0  0  0  0  0  0  0  0
    6.2660  -35.0150  -35.1830 C   0  0  0  0  0  0  0  0  0  0  0  0
   11.9250  -32.3320  -28.2650 O   0  0  0  0  0  0  0  0  0  0  0  0
    7.1300  -34.4860  -34.1590 C   0  0  0  0  0  0  0  0  0  0  0  0
    4.7030  -33.3640  -34.5370 C   0  0  0  0  0  0  0  0  0  0  0  0
    8.5400  -34.9900  -33.5330 C   0  0  0  0  0  0  0  0  0  0  0  0
  1 11  1  0
  2  1  2  0
  4 14  1  0
  5  4  1  0
  6  5  1  0
  7  6  1  0
  8  3  1  0
  8  6  1  0
  9  7  1  0
 10  4  2  0
 11  8  1  0
 11  3  1  0
 12 13  2  0
 12 16  1  0
 13 15  1  0
 15 17  2  0
 15  1  1  0
 16  2  1  0
 17  9  2  0
M  END
$$$$

     RDKit          3D

 13 15  0  0  0  0  0  0  0  0999 V2000
   10.2050  -33.8440  -31.6350 C   0  0  0  0  0  0  0  0  0  0  0  0
   11.3700  -32.9260  -29.7000 C   0  0  0  0  0  0  0  0  0  0  0  0
    7.6070  -34.4900  -34.1440 C   0  0  0  0  0  0  0  0  0  0  0  0
    9.1730  -32.8690  -31.4070 C   0  0  0  0  0  0  0  0  0  0  0  0
    8.4700  -34.0800  -33.1030 C   0  0  0  0  0  0  0  0  0  0  0  0
    9.0420  -36.2430  -34.6410 N   0  0  0  0  0  0  0  0  0  0  0  0
   10.4490  -32.1050  -29.5500 N   0  0  0  0  0  0  0  0  0  0  0  0
    9.6200  -34.6680  -32.7680 C   0  0  0  0  0  0  0  0  0  0  0  0
    8.0260  -35.5590  -34.9170 C   0  0  0  0  0  0  0  0  0  0  0  0
    9.3690  -32.0360  -30.3500 C   0  0  0  0  0  0  0  0  0  0  0  0
    9.7780  -35.7400  -33.6590 C   0  0  0  0  0  0  0  0  0  0  0  0
   11.2860  -33.7960  -30.8690 C   0  0  0  0  0  0  0  0  0  0  0  0
    8.1780  -33.1050  -32.2430 N   0  0  0  0  0  0  0  0  0  0  0  0
  1  4  1  0
  1 12  2  0
  2  7  2  0
  3  5  1  0
  4 10  1  0
  5  8  1  0
  5 13  2  0
  6 11  1  0
  8  1  1  0
  9  6  2  0
  9  3  1  0
 10  7  1  0
 11  8  2  0
 12  2  1  0
 13  4  2  0
M  END
$$$$

     RDKit          3D

 13 14  0  0  0  0  0  0  0  0999 V2000
    7.1940  -32.5050  -32.3810 C   0  0  0  0  0  0  0  0  0  0  0  0
    9.5020  -34.0670  -32.5940 C   0  0  0  0  0  0  0  0  0  0  0  0
    8.4330  -34.2920  -33.3860 C   0  0  0  0  0  0  0  0  0  0  0  0
    9.3460  -33.1020  -31.5770 C   0  0  0  0  0  0  0  0  0  0  0  0
    8.3330  -35.1340  -34.3760 N   0  0  0  0  0  0  0  0  0  0  0  0
    7.0450  -35.0590  -34.7920 C   0  0  0  0  0  0  0  0  0  0  0  0
   10.6640  -33.2050  -30.8200 C   0  0  0  0  0  0  0  0  0  0  0  0
   10.6450  -33.1090  -29.5820 O   0  0  0  0  0  0  0  0  0  0  0  0
   11.6450  -33.4340  -31.4800 O   0  0  0  0  0  0  0  0  0  0  0  0
    6.3300  -34.0420  -34.2070 N   0  0  0  0  0  0  0  0  0  0  0  0
    7.2800  -33.5260  -33.2940 C   0  0  0  0  0  0  0  0  0  0  0  0
    8.2880  -32.2820  -31.5360 C   0  0  0  0  0  0  0  0  0  0  0  0
    5.9890  -31.6400  -32.2240 C   0  0  0  0  0  0  0  0  0  0  0  0
  1 13  1  0
  1 12  1  0
  2  4  1  0
  3 11  1  0
  3  2  1  0
  4 12  2  0
  4  7  1  0
  5  3  2  0
  6  5  1  0
  6 10  1  0
  7  8  1  0
  9  7  2  0
 10 11  2  0
 11  1  1  0
M  END
$$$$

     RDKit          3D

  9  9  0  0  0  0  0  0  0  0999 V2000
    7.8360  -33.9050  -33.3340 C   0  0  0  0  0  0  0  0  0  0  0  0
    7.5770  -32.7130  -32.6520 C   0  0  0  0  0  0  0  0  0  0  0  0
   10.4520  -32.7730  -30.4960 N   0  0  0  0  0  0  0  0  0  0  0  0
    9.7670  -34.2780  -32.1770 C   0  0  0  0  0  0  0  0  0  0  0  0
    6.6850  -34.1590  -34.1980 O   0  0  0  0  0  0  0  0  0  0  0  0
    8.9460  -35.8700  -33.8780 O   0  0  0  0  0  0  0  0  0  0  0  0
    8.8680  -34.6760  -33.0790 C   0  0  0  0  0  0  0  0  0  0  0  0
    9.5840  -33.1640  -31.5130 C   0  0  0  0  0  0  0  0  0  0  0  0
    8.4870  -32.2920  -31.6160 C   0  0  0  0  0  0  0  0  0  0  0  0
  1  7  2  0
  1  2  1  0
  2  9  2  0
  4  8  2  0
  5  1  1  0
  6  7  1  0
  7  4  1  0
  8  3  1  0
  9  8  1  0
M  END
$$$$

     RDKit          3D

 17 18  0  0  0  0  0  0  0  0999 V2000
   12.4620  -33.3970  -31.6770 C   0  0  0  0  0  0  0  0  0  0  0  0
   11.0070  -34.5310  -33.4730 C   0  0  0  0  0  0  0  0  0  0  0  0
    9.6650  -34.4690  -33.9070 C   0  0  0  0  0  0  0  0  0  0  0  0
    4.6500  -33.3000  -33.7200 C   0  0  0  0  0  0  0  0  0  0  0  0
    8.7650  -33.8390  -33.1690 C   0  0  0  0  0  0  0  0  0  0  0  0
    8.6510  -32.5080  -31.2220 O   0  0  0  0  0  0  0  0  0  0  0  0
   13.0820  -33.5960  -30.0960 C   0  0  0  0  0  0  0  0  0  0  0  0
   10.2530  -33.1400  -31.3720 C   0  0  0  0  0  0  0  0  0  0  0  0
    6.7690  -34.5600  -34.2490 N   0  0  0  0  0  0  0  0  0  0  0  0
    5.3370  -32.4010  -32.9750 C   0  0  0  0  0  0  0  0  0  0  0  0
    7.3670  -33.6430  -33.4360 C   0  0  0  0  0  0  0  0  0  0  0  0
    6.7430  -32.5520  -32.8720 C   0  0  0  0  0  0  0  0  0  0  0  0
    9.3920  -33.2920  -31.9920 C   0  0  0  0  0  0  0  0  0  0  0  0
    5.3740  -34.2820  -34.3330 C   0  0  0  0  0  0  0  0  0  0  0  0
   11.4800  -32.9550  -30.5460 O   0  0  0  0  0  0  0  0  0  0  0  0
   13.3080  -32.7860  -31.8980 F   0  0  0  0  0  0  0  0  0  0  0  0
   11.5610  -34.1810  -32.5740 C   0  0  0  0  0  0  0  0  0  0  0  0
  1 15  1  0
  1  7  1  0
  2 17  1  0
  3  2  2  3
  3  5  1  0
  4 10  2  0
  5 13  2  3
  8 15  1  0
  9 11  2  0
 10 12  1  0
 11  5  1  0
 11 12  1  0
 13  8  1  0
 13  6  1  0
 14  9  1  0
 14  4  1  0
 16  1  1  0
 17  1  1  0
M  END
$$$$

     RDKit          3D

 13 13  0  0  0  0  0  0  0  0999 V2000
    9.4620  -33.5640  -31.7860 C   0  0  0  0  0  0  0  0  0  0  0  0
    6.9380  -32.7770  -32.9550 C   0  0  0  0  0  0  0  0  0  0  0  0
    7.4080  -32.0270  -31.8570 C   0  0  0  0  0  0  0  0  0  0  0  0
    9.3570  -34.6210  -32.7550 C   0  0  0  0  0  0  0  0  0  0  0  0
   11.9510  -33.0830  -31.9980 C   0  0  0  0  0  0  0  0  0  0  0  0
   10.7190  -34.0890  -30.6570 C   0  0  0  0  0  0  0  0  0  0  0  0
   10.8240  -33.9140  -31.2520 C   0  0  0  0  0  0  0  0  0  0  0  0
    5.5950  -32.5180  -33.2710 O   0  0  0  0  0  0  0  0  0  0  0  0
    8.3660  -34.7560  -33.7970 C   0  0  0  0  0  0  0  0  0  0  0  0
    8.5020  -35.7980  -34.6710 C   0  0  0  0  0  0  0  0  0  0  0  0
    8.7130  -32.4690  -31.2630 C   0  0  0  0  0  0  0  0  0  0  0  0
    9.1600  -31.8550  -30.3400 O   0  0  0  0  0  0  0  0  0  0  0  0
    7.3140  -33.9770  -33.7470 C   0  0  0  0  0  0  0  0  0  0  0  0
  1 11  1  0
  1  7  1  0
  2  3  2  0
  3 11  1  0
  4  1  2  0
  5  7  1  0
  7  6  2  0
  8  2  1  0
  9 13  2  0
  9  4  1  0
 10  9  1  0
 11 12  2  0
 13  2  1  0
M  END
$$$$

     RDKit          3D

  3  2  0  0  0  0  0  0  0  0999 V2000
    9.3090  -33.9600  -32.6430 C   0  0  0  0  0  0  0  0  0  0  0  0
    8.1950  -34.6330  -33.4900 C   0  0  0  0  0  0  0  0  0  0  0  0
    8.7610  -32.5110  -31.9090 Cl  0  0  0  0  0  0  0  0  0  0  0  0
  1  3  1  0
  2  1  1  0
M  END
$$$$
