
     RDKit          3D

 17 17  0  0  0  0  0  0  0  0999 V2000
    7.5420   38.8640   30.0440 C   0  0  0  0  0  0  0  0  0  0  0  0
    8.2650   40.4900   28.5420 C   0  0  0  0  0  0  0  0  0  0  0  0
    7.0600   35.2950   30.3380 C   0  0  0  0  0  0  0  0  0  0  0  0
    8.8230   36.8900   29.0460 C   0  0  0  0  0  0  0  0  0  0  0  0
    9.7480   41.8300   30.0620 S   0  0  0  0  0  0  0  0  0  0  0  0
    8.9260   43.1560   30.5810 N   0  0  0  0  0  0  0  0  0  0  0  0
    7.6080   34.0550   29.8210 O   0  0  0  0  0  0  0  0  0  0  0  0
    8.3750   39.0840   29.0240 C   0  0  0  0  0  0  0  0  0  0  0  0
   10.2120   41.6780   27.7980 C   0  0  0  0  0  0  0  0  0  0  0  0
   11.1370   42.1600   30.2350 O   0  0  0  0  0  0  0  0  0  0  0  0
    9.6470   41.1790   26.1340 S   0  0  0  0  0  0  0  0  0  0  0  0
    9.2770   41.4240   28.8320 N   0  0  0  0  0  0  0  0  0  0  0  0
    7.6590   36.7140   29.8770 C   0  0  0  0  0  0  0  0  0  0  0  0
    5.9120   35.1320   30.7670 O   0  0  0  0  0  0  0  0  0  0  0  0
    9.5360   40.9010   31.2340 O   0  0  0  0  0  0  0  0  0  0  0  0
    9.0900   38.1280   28.5820 C   0  0  0  0  0  0  0  0  0  0  0  0
    7.2710   37.7500   30.4310 C   0  0  0  0  0  0  0  0  0  0  0  0
  1 17  1  0
  2 12  1  0
  2  8  1  0
  3 14  1  0
  4 13  1  0
  5 10  2  0
  5  6  1  0
  5 15  2  0
  7  3  2  0
  8  1  2  0
  9 12  1  0
 11  9  1  0
 12  5  1  0
 13  3  1  0
 13 17  2  0
 16  8  1  0
 16  4  2  0
M  END
$$$$

     RDKit          3D

 10 11  0  0  0  0  0  0  0  0999 V2000
    8.0200   41.8810   30.7800 C   0  0  0  0  0  0  0  0  0  0  0  0
    9.7980   40.5620   27.7170 N   0  0  0  0  0  0  0  0  0  0  0  0
    9.9800   38.6000   27.0780 O   0  0  0  0  0  0  0  0  0  0  0  0
    8.4180   39.6910   29.9230 C   0  0  0  0  0  0  0  0  0  0  0  0
    9.1500   41.3120   31.5120 C   0  0  0  0  0  0  0  0  0  0  0  0
    8.1410   41.0930   29.4460 C   0  0  0  0  0  0  0  0  0  0  0  0
    9.2250   41.4810   28.5040 C   0  0  0  0  0  0  0  0  0  0  0  0
    8.7600   38.6570   28.8050 C   0  0  0  0  0  0  0  0  0  0  0  0
    9.4530   40.0500   30.9540 N   0  0  0  0  0  0  0  0  0  0  0  0
    9.4060   39.5300   27.5770 C   0  0  0  0  0  0  0  0  0  0  0  0
  1  5  1  0
  2  7  2  0
  4  8  1  0
  4  9  1  0
  6  7  1  0
  6  4  1  0
  6  1  1  0
  9  5  1  0
 10  3  1  0
 10  2  1  0
 10  8  1  0
M  END
$$$$

     RDKit          3D

 12 13  0  0  0  0  0  0  0  0999 V2000
    7.8360   41.6710   29.8350 C   0  0  0  0  0  0  0  0  0  0  0  0
    9.3960   37.9310   32.7300 C   0  0  0  0  0  0  0  0  0  0  0  0
   10.1480   39.5000   34.2360 O   0  0  0  0  0  0  0  0  0  0  0  0
    9.6210   40.2330   29.2590 C   0  0  0  0  0  0  0  0  0  0  0  0
   10.1590   39.7980   31.6170 C   0  0  0  0  0  0  0  0  0  0  0  0
    8.4690   40.9980   28.6650 N   0  0  0  0  0  0  0  0  0  0  0  0
    9.5210   38.2810   34.1980 C   0  0  0  0  0  0  0  0  0  0  0  0
    8.0420   39.7080   28.0340 C   0  0  0  0  0  0  0  0  0  0  0  0
    9.0990   38.7520   28.5910 C   0  0  0  0  0  0  0  0  0  0  0  0
    8.1470   41.1260   31.1940 C   0  0  0  0  0  0  0  0  0  0  0  0
   10.4230   38.4780   32.1040 O   0  0  0  0  0  0  0  0  0  0  0  0
    8.8240   39.8320   30.7930 C   0  0  0  0  0  0  0  0  0  0  0  0
  1 10  1  0
  2  7  1  0
  4  9  1  0
  4 12  1  0
  5 11  1  0
  6  8  1  0
  6  4  1  0
  6  1  1  0
  7  3  1  0
  8  9  1  0
 11  2  1  0
 12 10  1  0
 12  5  1  0
M  END
$$$$

     RDKit          3D

 10 10  0  0  0  0  0  0  0  0999 V2000
    8.0310   42.9690   31.3440 O   0  0  0  0  0  0  0  0  0  0  0  0
    9.7870   38.4150   32.1770 C   0  0  0  0  0  0  0  0  0  0  0  0
    9.4790   39.3240   30.7840 C   0  0  0  0  0  0  0  0  0  0  0  0
    9.1100   40.7590   31.7730 C   0  0  0  0  0  0  0  0  0  0  0  0
    6.1330   42.3130   30.6780 O   0  0  0  0  0  0  0  0  0  0  0  0
    9.4520   38.8090   33.1890 C   0  0  0  0  0  0  0  0  0  0  0  0
    8.0780   41.1400   30.0660 C   0  0  0  0  0  0  0  0  0  0  0  0
    9.4770   40.1500   33.0610 C   0  0  0  0  0  0  0  0  0  0  0  0
    8.4550   40.2800   31.0350 N   0  0  0  0  0  0  0  0  0  0  0  0
    7.3820   42.1540   30.9600 C   0  0  0  0  0  0  0  0  0  0  0  0
  2  6  1  0
  3  9  1  0
  3  2  1  0
  4  8  1  0
  5 10  2  0
  7 10  1  0
  7  9  1  0
  8  6  1  0
  9  4  1  0
 10  1  1  0
M  END
$$$$

     RDKit          3D

 14 16  0  0  0  0  0  0  0  0999 V2000
    8.4350   35.9280   29.2710 C   0  0  0  0  0  0  0  0  0  0  0  0
    9.8530   40.3120   31.1270 O   0  0  0  0  0  0  0  0  0  0  0  0
   10.1960   39.3180   29.0640 N   0  0  0  0  0  0  0  0  0  0  0  0
   11.0460   40.5340   31.5300 C   0  0  0  0  0  0  0  0  0  0  0  0
   11.0120   41.8780   31.9600 C   0  0  0  0  0  0  0  0  0  0  0  0
    9.4870   35.5290   28.3490 C   0  0  0  0  0  0  0  0  0  0  0  0
    9.7760   40.1590   29.9870 C   0  0  0  0  0  0  0  0  0  0  0  0
   10.1530   42.1960   29.9790 C   0  0  0  0  0  0  0  0  0  0  0  0
    9.3250   41.2770   29.6180 O   0  0  0  0  0  0  0  0  0  0  0  0
    9.2080   43.5530   30.2460 N   0  0  0  0  0  0  0  0  0  0  0  0
    9.5330   38.1220   28.9390 C   0  0  0  0  0  0  0  0  0  0  0  0
   11.2340   42.2480   30.7150 C   0  0  0  0  0  0  0  0  0  0  0  0
    9.0080   38.4980   29.8420 O   0  0  0  0  0  0  0  0  0  0  0  0
    9.3370   36.9640   28.3420 C   0  0  0  0  0  0  0  0  0  0  0  0
  2  4  1  0
  4  5  1  0
  6  1  1  0
  7  3  1  0
  7  2  1  0
  8 10  1  0
  8 12  1  0
  9  8  1  0
  9  7  1  0
 11  3  2  0
 11 13  1  0
 12  5  1  0
 13  7  1  0
 14  6  1  0
 14 11  1  0
 14  1  1  0
M  END
$$$$

     RDKit          3D

 11 12  0  0  0  0  0  0  0  0999 V2000
    9.6620   40.0120   26.4240 C   0  0  0  0  0  0  0  0  0  0  0  0
    7.5980   39.4470   29.8740 C   0  0  0  0  0  0  0  0  0  0  0  0
    8.3370   41.6730   30.0160 C   0  0  0  0  0  0  0  0  0  0  0  0
   10.7970   40.0800   29.5160 C   0  0  0  0  0  0  0  0  0  0  0  0
    9.4360   40.6300   30.0340 C   0  0  0  0  0  0  0  0  0  0  0  0
    8.6190   38.7410   30.4780 C   0  0  0  0  0  0  0  0  0  0  0  0
   10.0280   38.9070   27.0550 C   0  0  0  0  0  0  0  0  0  0  0  0
    8.3810   39.1290   28.5530 C   0  0  0  0  0  0  0  0  0  0  0  0
   10.2150   38.3150   30.0780 C   0  0  0  0  0  0  0  0  0  0  0  0
    9.4710   38.3860   28.2580 C   0  0  0  0  0  0  0  0  0  0  0  0
    8.5790   41.5360   28.6500 C   0  0  0  0  0  0  0  0  0  0  0  0
  1  7  2  0
  2  6  1  0
  3  5  1  0
  4  5  1  0
  8  2  1  0
  9  4  1  0
  9  6  1  0
 10  7  1  0
 10  8  1  0
 10  9  1  0
 11  3  1  0
 11  5  1  0
M  END
$$$$

     RDKit          3D

 16 16  0  0  0  0  0  0  0  0999 V2000
    7.8130   41.9190   32.9380 C   0  0  0  0  0  0  0  0  0  0  0  0
    9.1230   39.1920   28.0370 C   0  0  0  0  0  0  0  0  0  0  0  0
    7.5670   37.8980   32.4230 O   0  0  0  0  0  0  0  0  0  0  0  0
    7.3570   41.0260   31.8880 O   0  0  0  0  0  0  0  0  0  0  0  0
    8.5110   40.0280   29.8770 C   0  0  0  0  0  0  0  0  0  0  0  0
    8.7370   38.0090   31.6100 C   0  0  0  0  0  0  0  0  0  0  0  0
    8.4480   41.7740   29.2610 C   0  0  0  0  0  0  0  0  0  0  0  0
   10.3260   37.5710   33.4490 N   0  0  0  0  0  0  0  0  0  0  0  0
    8.0980   39.1200   29.6260 O   0  0  0  0  0  0  0  0  0  0  0  0
    8.3260   40.3360   28.2390 C   0  0  0  0  0  0  0  0  0  0  0  0
    9.3090   40.4900   28.2690 C   0  0  0  0  0  0  0  0  0  0  0  0
   10.1680   39.1290   32.9830 C   0  0  0  0  0  0  0  0  0  0  0  0
    9.6510   39.1380   31.5440 C   0  0  0  0  0  0  0  0  0  0  0  0
    8.7760   38.2220   28.9800 C   0  0  0  0  0  0  0  0  0  0  0  0
    8.3750   37.0940   28.6000 O   0  0  0  0  0  0  0  0  0  0  0  0
    8.4590   40.5160   31.4530 C   0  0  0  0  0  0  0  0  0  0  0  0
  2 11  1  0
  2 14  1  0
  4  1  1  0
  5 16  1  0
  6  3  1  0
  9  5  1  0
 10 11  1  0
 10  7  1  0
 10  5  1  0
 12  8  1  0
 13  6  1  0
 13 12  1  0
 14 15  1  0
 14  9  1  0
 16 13  1  0
 16  4  1  0
M  END
$$$$

     RDKit          3D

 11 12  0  0  0  0  0  0  0  0999 V2000
    8.0410   37.0920   30.5920 C   0  0  0  0  0  0  0  0  0  0  0  0
    8.9560   39.8340   29.0590 O   0  0  0  0  0  0  0  0  0  0  0  0
    9.6700   38.4870   32.0410 O   0  0  0  0  0  0  0  0  0  0  0  0
    7.4650   35.5090   30.0780 C   0  0  0  0  0  0  0  0  0  0  0  0
    7.8830   39.1410   29.5190 C   0  0  0  0  0  0  0  0  0  0  0  0
    7.6080   39.5080   30.9440 O   0  0  0  0  0  0  0  0  0  0  0  0
    8.5130   35.6080   28.1180 C   0  0  0  0  0  0  0  0  0  0  0  0
    8.8920   36.8150   28.4690 C   0  0  0  0  0  0  0  0  0  0  0  0
    8.2300   37.5350   29.4620 C   0  0  0  0  0  0  0  0  0  0  0  0
    8.4860   38.3590   31.6090 C   0  0  0  0  0  0  0  0  0  0  0  0
    7.5730   34.9750   28.8360 C   0  0  0  0  0  0  0  0  0  0  0  0
  1 10  1  0
  4  1  2  0
  5  2  1  0
  5  6  1  0
  6 10  1  0
  7  8  2  0
  7 11  1  0
  9  8  1  0
  9  5  1  0
  9  1  1  0
 10  3  2  0
 11  4  1  0
M  END
$$$$

     RDKit          3D

 12 13  0  0  0  0  0  0  0  0999 V2000
    8.7950   39.9900   29.9150 C   0  0  0  0  0  0  0  0  0  0  0  0
   10.3220   41.1590   31.2570 C   0  0  0  0  0  0  0  0  0  0  0  0
    9.3450   38.9570   27.9750 C   0  0  0  0  0  0  0  0  0  0  0  0
    9.7590   41.1210   29.8260 C   0  0  0  0  0  0  0  0  0  0  0  0
    8.5520   39.4960   31.3350 N   0  0  0  0  0  0  0  0  0  0  0  0
    9.7720   38.9860   29.1340 C   0  0  0  0  0  0  0  0  0  0  0  0
    8.2930   37.4940   30.4140 C   0  0  0  0  0  0  0  0  0  0  0  0
    8.9630   38.5060   33.8160 C   0  0  0  0  0  0  0  0  0  0  0  0
   10.0030   39.5740   33.2800 C   0  0  0  0  0  0  0  0  0  0  0  0
    9.3330   40.3830   32.2750 C   0  0  0  0  0  0  0  0  0  0  0  0
    8.7040   38.0840   31.5290 C   0  0  0  0  0  0  0  0  0  0  0  0
    8.8340   37.5520   32.7470 N   0  0  0  0  0  0  0  0  0  0  0  0
  1  6  1  0
  1  5  1  0
  3  6  1  0
  4  1  1  0
  4  2  1  0
  5 11  1  0
  5 10  1  0
  7 11  1  0
  9  8  1  0
 10  2  1  0
 10  9  1  0
 11 12  2  0
 12  8  1  0
M  END
$$$$

     RDKit          3D

 10  9  0  0  0  0  0  0  0  0999 V2000
    9.7930   38.6370   32.6190 C   0  0  0  0  0  0  0  0  0  0  0  0
    7.1700   38.0190   31.8240 C   0  0  0  0  0  0  0  0  0  0  0  0
    9.4730   39.5770   28.1670 O   0  0  0  0  0  0  0  0  0  0  0  0
    7.3160   37.9470   32.9040 C   0  0  0  0  0  0  0  0  0  0  0  0
    9.8270   40.0690   29.1880 C   0  0  0  0  0  0  0  0  0  0  0  0
    8.6440   39.6120   31.0700 C   0  0  0  0  0  0  0  0  0  0  0  0
    9.7970   39.2660   30.3070 O   0  0  0  0  0  0  0  0  0  0  0  0
    8.8470   37.9680   33.5430 C   0  0  0  0  0  0  0  0  0  0  0  0
    7.5750   39.2990   30.7740 C   0  0  0  0  0  0  0  0  0  0  0  0
   10.8340   41.0140   29.2860 O   0  0  0  0  0  0  0  0  0  0  0  0
  1  8  1  0
  2  4  1  0
  3  5  2  0
  4  8  1  0
  5 10  1  0
  5  7  1  0
  7  6  1  0
  9  6  1  0
  9  2  1  0
M  END
$$$$

     RDKit          3D

  6  6  0  0  0  0  0  0  0  0999 V2000
    9.4640   39.8410   32.1570 C   0  0  0  0  0  0  0  0  0  0  0  0
    9.4490   37.5570   32.5820 O   0  0  0  0  0  0  0  0  0  0  0  0
    7.4740   40.1610   31.4460 O   0  0  0  0  0  0  0  0  0  0  0  0
    7.0040   39.1360   33.6070 C   0  0  0  0  0  0  0  0  0  0  0  0
    8.8930   38.5620   31.9540 C   0  0  0  0  0  0  0  0  0  0  0  0
    7.9460   39.2790   32.1880 N   0  0  0  0  0  0  0  0  0  0  0  0
  1  6  1  0
  3  6  1  0
  5  1  1  0
  5  6  1  0
  5  2  1  0
  6  4  1  0
M  END
$$$$

     RDKit          3D

  8  8  0  0  0  0  0  0  0  0999 V2000
    9.9120   38.2980   32.1650 C   0  0  0  0  0  0  0  0  0  0  0  0
   10.8510   39.3160   30.1690 C   0  0  0  0  0  0  0  0  0  0  0  0
    8.6750   37.5630   30.3600 C   0  0  0  0  0  0  0  0  0  0  0  0
    8.7270   37.4760   31.6670 O   0  0  0  0  0  0  0  0  0  0  0  0
    9.9700   38.9580   28.8410 C   0  0  0  0  0  0  0  0  0  0  0  0
    8.8810   36.2910   29.6680 N   0  0  0  0  0  0  0  0  0  0  0  0
    8.5750   38.6280   29.3810 N   0  0  0  0  0  0  0  0  0  0  0  0
   10.1940   39.2650   31.7050 C   0  0  0  0  0  0  0  0  0  0  0  0
  2  8  1  0
  3  4  1  0
  4  1  1  0
  5  7  1  0
  5  2  1  0
  6  3  1  0
  7  3  2  0
  8  1  1  0
M  END
$$$$

     RDKit          3D

 24 26  0  0  0  0  0  0  0  0999 V2000
    7.1460   38.8410   32.8430 C   0  0  0  0  0  0  0  0  0  0  0  0
    9.9140   40.8770   30.4770 C   0  0  0  0  0  0  0  0  0  0  0  0
    8.9300   41.3340   32.9430 C   0  0  0  0  0  0  0  0  0  0  0  0
    7.6430   34.8870   28.7550 O   0  0  0  0  0  0  0  0  0  0  0  0
    7.8000   42.3200   30.7570 C   0  0  0  0  0  0  0  0  0  0  0  0
    9.4990   40.7740   25.0970 C   0  0  0  0  0  0  0  0  0  0  0  0
    8.0640   37.6060   30.7330 O   0  0  0  0  0  0  0  0  0  0  0  0
    8.8900   40.0480   33.6590 C   0  0  0  0  0  0  0  0  0  0  0  0
    8.6890   41.1930   31.3120 C   0  0  0  0  0  0  0  0  0  0  0  0
    7.5250   38.7920   31.4880 C   0  0  0  0  0  0  0  0  0  0  0  0
    7.1010   36.8630   30.0690 C   0  0  0  0  0  0  0  0  0  0  0  0
    6.4980   35.4550   32.0500 O   0  0  0  0  0  0  0  0  0  0  0  0
    6.8050   35.6700   30.7720 C   0  0  0  0  0  0  0  0  0  0  0  0
    9.0090   40.6150   26.5220 C   0  0  0  0  0  0  0  0  0  0  0  0
    8.1360   39.9180   29.2890 C   0  0  0  0  0  0  0  0  0  0  0  0
    9.5820   40.5180   28.9170 C   0  0  0  0  0  0  0  0  0  0  0  0
   11.0530   41.0720   30.8430 O   0  0  0  0  0  0  0  0  0  0  0  0
    7.0850   34.9420   29.7980 C   0  0  0  0  0  0  0  0  0  0  0  0
    7.7850   40.0770   30.7640 C   0  0  0  0  0  0  0  0  0  0  0  0
    7.0610   40.3210   28.1160 C   0  0  0  0  0  0  0  0  0  0  0  0
    7.5960   39.6760   33.8190 O   0  0  0  0  0  0  0  0  0  0  0  0
    6.6250   37.7320   33.5230 N   0  0  0  0  0  0  0  0  0  0  0  0
    7.6550   40.4820   26.8580 C   0  0  0  0  0  0  0  0  0  0  0  0
    9.9320   40.7310   27.5380 C   0  0  0  0  0  0  0  0  0  0  0  0
  1 22  1  0
  1 21  1  0
  2 17  2  0
  2  9  1  0
  3  8  1  0
  4 18  2  0
  6 14  1  0
  8 21  1  0
  9  5  1  0
  9  3  1  0
 10  7  1  0
 10  1  1  0
 11  7  1  0
 11 13  1  0
 13 12  1  0
 14 23  1  0
 14 24  2  0
 15 20  1  0
 15 19  1  0
 16 24  1  0
 16 15  1  0
 16  2  1  0
 18 13  1  0
 19  9  1  0
 19 10  1  0
 23 20  1  0
M  END
$$$$

     RDKit          3D

 18 19  0  0  0  0  0  0  0  0999 V2000
    9.4420   40.8840   27.4280 C   0  0  0  0  0  0  0  0  0  0  0  0
   10.2890   42.5330   31.5950 C   0  0  0  0  0  0  0  0  0  0  0  0
    9.0720   38.8320   28.6610 N   0  0  0  0  0  0  0  0  0  0  0  0
    9.1880   43.1240   31.3320 O   0  0  0  0  0  0  0  0  0  0  0  0
    9.3170   39.4670   27.5300 C   0  0  0  0  0  0  0  0  0  0  0  0
    8.2000   37.6540   28.9030 C   0  0  0  0  0  0  0  0  0  0  0  0
    9.5870   41.6830   28.6830 C   0  0  0  0  0  0  0  0  0  0  0  0
   10.1270   40.7570   29.6770 N   0  0  0  0  0  0  0  0  0  0  0  0
    8.1530   35.2950   29.4660 O   0  0  0  0  0  0  0  0  0  0  0  0
    9.7530   38.7230   26.4920 C   0  0  0  0  0  0  0  0  0  0  0  0
   10.8430   42.7350   32.7630 O   0  0  0  0  0  0  0  0  0  0  0  0
   10.6010   41.1880   30.8240 C   0  0  0  0  0  0  0  0  0  0  0  0
    8.7550   36.2520   28.8550 C   0  0  0  0  0  0  0  0  0  0  0  0
    9.6940   39.3140   29.7290 C   0  0  0  0  0  0  0  0  0  0  0  0
    9.9250   36.0990   28.3940 O   0  0  0  0  0  0  0  0  0  0  0  0
   10.0100   39.2260   25.1970 C   0  0  0  0  0  0  0  0  0  0  0  0
    9.8300   40.6680   25.1100 C   0  0  0  0  0  0  0  0  0  0  0  0
    9.6120   41.4840   26.1610 C   0  0  0  0  0  0  0  0  0  0  0  0
  1  5  1  0
  1  7  1  0
  2 11  1  0
  3  6  1  0
  3 14  1  0
  4  2  2  0
  5  3  1  0
  7  8  1  0
  8 14  1  0
  8 12  1  0
 10  5  2  0
 12  2  1  0
 13  6  1  0
 13  9  1  0
 15 13  2  0
 16 10  1  0
 17 16  2  0
 17 18  1  0
 18  1  2  0
M  END
$$$$

     RDKit          3D

 12 14  0  0  0  0  0  0  0  0999 V2000
    8.5700   39.6960   28.0880 C   0  0  0  0  0  0  0  0  0  0  0  0
    9.7360   39.3520   30.0210 C   0  0  0  0  0  0  0  0  0  0  0  0
    9.8660   39.6430   28.5890 C   0  0  0  0  0  0  0  0  0  0  0  0
   10.7390   39.7770   31.1550 C   0  0  0  0  0  0  0  0  0  0  0  0
    7.5210   40.6260   29.3350 C   0  0  0  0  0  0  0  0  0  0  0  0
    8.1610   41.0740   28.5370 C   0  0  0  0  0  0  0  0  0  0  0  0
    9.3100   37.8670   30.3340 C   0  0  0  0  0  0  0  0  0  0  0  0
    9.1070   37.3000   28.9590 C   0  0  0  0  0  0  0  0  0  0  0  0
    8.4210   40.0080   30.5230 C   0  0  0  0  0  0  0  0  0  0  0  0
    9.3560   40.9020   31.2750 O   0  0  0  0  0  0  0  0  0  0  0  0
    8.1940   35.8330   29.2450 S   0  0  0  0  0  0  0  0  0  0  0  0
    8.2860   38.2120   28.3030 O   0  0  0  0  0  0  0  0  0  0  0  0
  1 12  1  0
  1  6  1  0
  1  3  1  0
  2  3  1  0
  2  7  1  0
  2  9  1  0
  2  4  1  0
  4 10  1  0
  6  5  1  0
  8 11  1  0
  8  7  1  0
  9  5  1  0
  9 10  1  0
 12  8  1  0
M  END
$$$$

     RDKit          3D

  9 10  0  0  0  0  0  0  0  0999 V2000
    9.7780   39.1230   27.8930 C   0  0  0  0  0  0  0  0  0  0  0  0
   10.8240   40.5870   29.7160 N   0  0  0  0  0  0  0  0  0  0  0  0
   11.0740   40.4070   30.9720 C   0  0  0  0  0  0  0  0  0  0  0  0
    9.3310   37.8610   27.6760 C   0  0  0  0  0  0  0  0  0  0  0  0
    9.2860   37.3390   29.9920 C   0  0  0  0  0  0  0  0  0  0  0  0
    8.9750   37.0310   28.7150 C   0  0  0  0  0  0  0  0  0  0  0  0
   10.4670   39.2210   31.4510 C   0  0  0  0  0  0  0  0  0  0  0  0
    9.9780   38.5940   30.2380 C   0  0  0  0  0  0  0  0  0  0  0  0
   10.2070   39.5130   29.1900 C   0  0  0  0  0  0  0  0  0  0  0  0
  1  9  1  0
  2  3  1  0
  3  7  2  0
  4  1  1  0
  4  6  1  0
  6  5  2  0
  8  5  1  0
  8  7  1  0
  9  2  2  0
  9  8  1  0
M  END
$$$$

     RDKit          3D

 11 13  0  0  0  0  0  0  0  0999 V2000
   10.1310   38.2450   30.6460 C   0  0  0  0  0  0  0  0  0  0  0  0
    8.4610   39.6970   33.0870 N   0  0  0  0  0  0  0  0  0  0  0  0
   10.3640   40.0700   28.8190 C   0  0  0  0  0  0  0  0  0  0  0  0
    8.0710   39.4130   34.5000 C   0  0  0  0  0  0  0  0  0  0  0  0
    8.6410   38.9230   32.1330 C   0  0  0  0  0  0  0  0  0  0  0  0
   10.3350   39.6600   30.3680 C   0  0  0  0  0  0  0  0  0  0  0  0
    9.0030   38.0270   30.2460 C   0  0  0  0  0  0  0  0  0  0  0  0
    8.8710   36.2940   29.3110 S   0  0  0  0  0  0  0  0  0  0  0  0
   11.3950   40.3620   31.1570 C   0  0  0  0  0  0  0  0  0  0  0  0
    9.2640   38.7600   31.6560 C   0  0  0  0  0  0  0  0  0  0  0  0
   10.1360   40.5010   31.3830 C   0  0  0  0  0  0  0  0  0  0  0  0
  1 10  1  0
  2  4  1  0
  3  6  1  0
  5  2  1  0
  6  1  1  0
  6  9  1  0
  6 11  1  0
  7  1  1  0
  7 10  1  0
  8  7  1  0
  9 11  1  0
 10  5  1  0
 11 10  1  0
M  END
$$$$

     RDKit          3D

 14 14  0  0  0  0  0  0  0  0999 V2000
    7.2330   38.9220   31.0720 C   0  0  0  0  0  0  0  0  0  0  0  0
    8.2950   41.4130   30.0920 C   0  0  0  0  0  0  0  0  0  0  0  0
   11.8100   41.3960   29.5050 C   0  0  0  0  0  0  0  0  0  0  0  0
    9.7740   38.0570   28.8730 N   0  0  0  0  0  0  0  0  0  0  0  0
   10.6760   41.0970   28.7110 C   0  0  0  0  0  0  0  0  0  0  0  0
    8.5040   41.1770   31.6660 C   0  0  0  0  0  0  0  0  0  0  0  0
    9.3450   39.4070   31.0910 C   0  0  0  0  0  0  0  0  0  0  0  0
    9.2360   35.7170   28.7490 N   0  0  0  0  0  0  0  0  0  0  0  0
    9.3380   40.5730   29.2250 C   0  0  0  0  0  0  0  0  0  0  0  0
    9.1810   36.9040   29.3900 C   0  0  0  0  0  0  0  0  0  0  0  0
    8.3260   38.1110   33.0100 O   0  0  0  0  0  0  0  0  0  0  0  0
    8.1480   38.3700   31.3800 C   0  0  0  0  0  0  0  0  0  0  0  0
    9.6260   39.1970   29.3140 N   0  0  0  0  0  0  0  0  0  0  0  0
    8.5590   37.0250   30.5750 N   0  0  0  0  0  0  0  0  0  0  0  0
  2  6  1  0
  4 13  1  0
  4 10  2  0
  5  9  1  0
  5  3  1  0
  7 12  1  0
  8 10  1  0
  9 13  1  0
  9  2  1  0
 10 14  2  0
 12  1  1  0
 12 11  1  0
 13  7  1  0
 14 12  1  0
M  END
$$$$

     RDKit          3D

 17 20  0  0  0  0  0  0  0  0999 V2000
   10.5810   40.4380   29.4160 C   0  0  0  0  0  0  0  0  0  0  0  0
    8.6970   42.6230   31.3920 C   0  0  0  0  0  0  0  0  0  0  0  0
    8.5300   37.9460   29.2590 C   0  0  0  0  0  0  0  0  0  0  0  0
    8.8770   41.2720   28.7010 O   0  0  0  0  0  0  0  0  0  0  0  0
    9.6760   41.3970   31.2430 C   0  0  0  0  0  0  0  0  0  0  0  0
    9.1590   39.3580   27.2570 C   0  0  0  0  0  0  0  0  0  0  0  0
    7.9520   37.2040   30.1030 C   0  0  0  0  0  0  0  0  0  0  0  0
    7.9310   42.0460   32.4700 C   0  0  0  0  0  0  0  0  0  0  0  0
    9.1970   40.0760   28.6490 C   0  0  0  0  0  0  0  0  0  0  0  0
    8.7960   39.1460   29.7620 C   0  0  0  0  0  0  0  0  0  0  0  0
   10.7190   40.4990   30.6070 C   0  0  0  0  0  0  0  0  0  0  0  0
    9.2420   39.0960   31.0750 C   0  0  0  0  0  0  0  0  0  0  0  0
    7.5410   40.7730   32.0710 O   0  0  0  0  0  0  0  0  0  0  0  0
    9.1130   41.5370   27.3550 C   0  0  0  0  0  0  0  0  0  0  0  0
    9.0660   36.6570   29.6450 O   0  0  0  0  0  0  0  0  0  0  0  0
    9.0770   40.2770   31.9670 C   0  0  0  0  0  0  0  0  0  0  0  0
    9.0880   40.4990   26.3520 C   0  0  0  0  0  0  0  0  0  0  0  0
  1 11  1  0
  2  8  1  0
  3 15  1  0
  3 10  1  0
  3  7  1  0
  5 11  1  0
  5  2  1  0
  5 16  1  0
  9  6  1  0
  9  4  1  0
  9  1  1  0
  9 10  1  0
 10 12  1  0
 13  8  1  0
 14  4  1  0
 15  7  1  0
 16 12  1  0
 16 13  1  0
 17  6  1  0
 17 14  1  0
M  END
$$$$

     RDKit          3D

 16 18  0  0  0  0  0  0  0  0999 V2000
    9.6410   41.4950   29.2700 C   0  0  0  0  0  0  0  0  0  0  0  0
    9.8430   41.1850   31.7980 C   0  0  0  0  0  0  0  0  0  0  0  0
    9.0480   39.8670   31.6720 C   0  0  0  0  0  0  0  0  0  0  0  0
   10.0590   37.6420   34.6530 C   0  0  0  0  0  0  0  0  0  0  0  0
    9.1360   40.2100   29.3120 C   0  0  0  0  0  0  0  0  0  0  0  0
    7.7070   36.9470   33.9900 C   0  0  0  0  0  0  0  0  0  0  0  0
    8.3030   39.9470   30.4450 C   0  0  0  0  0  0  0  0  0  0  0  0
    9.0660   39.3910   28.1170 C   0  0  0  0  0  0  0  0  0  0  0  0
    8.8770   38.8960   32.8740 N   0  0  0  0  0  0  0  0  0  0  0  0
    9.6360   42.2060   30.6690 C   0  0  0  0  0  0  0  0  0  0  0  0
    8.0780   37.6760   32.6380 C   0  0  0  0  0  0  0  0  0  0  0  0
   10.1150   42.0470   28.0600 C   0  0  0  0  0  0  0  0  0  0  0  0
    9.7720   39.0490   33.9560 C   0  0  0  0  0  0  0  0  0  0  0  0
    9.5600   39.9430   26.9150 C   0  0  0  0  0  0  0  0  0  0  0  0
    9.9870   41.2980   26.8780 C   0  0  0  0  0  0  0  0  0  0  0  0
    8.8080   37.1160   35.1350 C   0  0  0  0  0  0  0  0  0  0  0  0
  1  5  1  0
  1 10  1  0
  3  2  2  0
  3  9  1  0
  4 16  1  0
  5  7  1  0
  6 16  1  0
  7  3  1  0
  8  5  2  0
  9 13  1  0
 10  2  1  0
 11  9  1  0
 11  6  1  0
 12  1  2  0
 13  4  1  0
 14  8  1  0
 15 14  2  0
 15 12  1  0
M  END
$$$$
