
     RDKit          3D

  6  6  0  0  0  0  0  0  0  0999 V2000
    8.7670   37.1600   30.2640 O   0  0  0  0  0  0  0  0  0  0  0  0
    8.6670   37.6590   29.3490 C   0  0  0  0  0  0  0  0  0  0  0  0
    8.7650   39.8290   30.7670 C   0  0  0  0  0  0  0  0  0  0  0  0
    8.7950   40.5810   31.6050 O   0  0  0  0  0  0  0  0  0  0  0  0
    8.8540   40.6780   29.7820 O   0  0  0  0  0  0  0  0  0  0  0  0
    8.7450   38.3700   30.3720 C   0  0  0  0  0  0  0  0  0  0  0  0
  1  6  1  0
  2  1  1  0
  2  6  1  0
  3  4  1  0
  5  3  2  0
  6  3  1  0
M  END
$$$$

     RDKit          3D

 11 10  0  0  0  0  0  0  0  0999 V2000
    8.8600   40.3430   30.2130 O   0  0  0  0  0  0  0  0  0  0  0  0
    8.6140   41.5180   28.3150 O   0  0  0  0  0  0  0  0  0  0  0  0
    8.5580   42.2140   31.4170 C   0  0  0  0  0  0  0  0  0  0  0  0
    7.6680   40.4770   28.0910 C   0  0  0  0  0  0  0  0  0  0  0  0
    8.7070   38.9190   29.9950 C   0  0  0  0  0  0  0  0  0  0  0  0
    8.2450   39.0540   28.5050 C   0  0  0  0  0  0  0  0  0  0  0  0
    9.6980   41.2050   30.9580 C   0  0  0  0  0  0  0  0  0  0  0  0
    9.0520   36.4250   29.9230 O   0  0  0  0  0  0  0  0  0  0  0  0
   10.6150   42.3600   30.3560 C   0  0  0  0  0  0  0  0  0  0  0  0
   10.7950   40.1630   31.5440 C   0  0  0  0  0  0  0  0  0  0  0  0
    9.1330   37.5250   29.7900 C   0  0  0  0  0  0  0  0  0  0  0  0
  1  7  1  0
  4  2  1  0
  4  6  1  0
  5  6  1  0
  5  1  1  0
  7  3  1  0
  7 10  1  0
  9  7  1  0
 11  8  2  0
 11  5  1  0
M  END
$$$$

     RDKit          3D

 12 12  0  0  0  0  0  0  0  0999 V2000
    9.8620   36.9070   28.5500 C   0  0  0  0  0  0  0  0  0  0  0  0
   10.3500   40.5530   32.2090 C   0  0  0  0  0  0  0  0  0  0  0  0
    8.7480   39.2710   28.1430 C   0  0  0  0  0  0  0  0  0  0  0  0
    9.4770   41.1980   32.9660 C   0  0  0  0  0  0  0  0  0  0  0  0
    8.0790   39.7900   29.3360 C   0  0  0  0  0  0  0  0  0  0  0  0
    8.7970   40.3570   30.4790 C   0  0  0  0  0  0  0  0  0  0  0  0
    7.1960   40.7630   33.7080 O   0  0  0  0  0  0  0  0  0  0  0  0
    9.9390   38.3980   28.4620 C   0  0  0  0  0  0  0  0  0  0  0  0
    6.8130   41.6980   30.8250 O   0  0  0  0  0  0  0  0  0  0  0  0
   10.0050   40.3010   30.8420 C   0  0  0  0  0  0  0  0  0  0  0  0
    7.7660   40.9500   31.3330 C   0  0  0  0  0  0  0  0  0  0  0  0
    8.0350   40.9510   32.7430 C   0  0  0  0  0  0  0  0  0  0  0  0
  2  4  1  0
  3  8  1  0
  3  5  1  0
  5  6  1  0
  6 10  1  0
  6 11  2  0
  8  1  1  0
  9 11  1  0
 10  2  2  0
 11 12  1  0
 12  4  2  0
 12  7  1  0
M  END
$$$$

     RDKit          3D

 14 15  0  0  0  0  0  0  0  0999 V2000
    8.0880   37.2490   31.1970 O   0  0  0  0  0  0  0  0  0  0  0  0
   10.0570   40.2700   26.8380 C   0  0  0  0  0  0  0  0  0  0  0  0
    8.1620   37.4340   29.9370 C   0  0  0  0  0  0  0  0  0  0  0  0
    8.6310   36.4340   28.9960 C   0  0  0  0  0  0  0  0  0  0  0  0
    8.9440   38.7910   28.3730 C   0  0  0  0  0  0  0  0  0  0  0  0
    6.8610   37.3390   31.9440 C   0  0  0  0  0  0  0  0  0  0  0  0
    8.2020   38.7460   29.5220 C   0  0  0  0  0  0  0  0  0  0  0  0
    8.6870   41.2310   28.2950 C   0  0  0  0  0  0  0  0  0  0  0  0
    9.1510   40.0460   27.7660 C   0  0  0  0  0  0  0  0  0  0  0  0
    7.5910   39.9890   30.0130 C   0  0  0  0  0  0  0  0  0  0  0  0
    9.2950   37.4570   27.7380 S   0  0  0  0  0  0  0  0  0  0  0  0
    6.9410   36.4590   34.0150 C   0  0  0  0  0  0  0  0  0  0  0  0
    7.9230   41.1730   29.5560 C   0  0  0  0  0  0  0  0  0  0  0  0
    7.2580   36.3110   32.6300 O   0  0  0  0  0  0  0  0  0  0  0  0
  1  6  1  0
  2  9  1  0
  3  1  1  0
  4  3  2  0
  5  7  1  0
  6 14  1  0
  7  3  1  0
  7 10  2  0
  8 13  2  0
  9  8  1  0
  9  5  2  0
 11  5  1  0
 11  4  1  0
 13 10  1  0
 14 12  1  0
M  END
$$$$

     RDKit          3D

 13 13  0  0  0  0  0  0  0  0999 V2000
    9.7020   37.6970   27.8080 C   0  0  0  0  0  0  0  0  0  0  0  0
    9.4650   35.4210   28.5500 F   0  0  0  0  0  0  0  0  0  0  0  0
    6.1150   42.5580   32.4130 O   0  0  0  0  0  0  0  0  0  0  0  0
    9.2970   36.7280   28.8010 C   0  0  0  0  0  0  0  0  0  0  0  0
    8.0430   41.4110   30.4130 C   0  0  0  0  0  0  0  0  0  0  0  0
    7.6680   41.9780   32.7280 C   0  0  0  0  0  0  0  0  0  0  0  0
    9.2680   40.9220   29.6780 C   0  0  0  0  0  0  0  0  0  0  0  0
    8.8350   39.5020   29.2460 C   0  0  0  0  0  0  0  0  0  0  0  0
    8.6870   38.5030   30.2400 C   0  0  0  0  0  0  0  0  0  0  0  0
    8.7110   37.1660   29.9690 C   0  0  0  0  0  0  0  0  0  0  0  0
    7.4220   41.7940   34.0840 O   0  0  0  0  0  0  0  0  0  0  0  0
    9.5420   39.0430   28.0510 C   0  0  0  0  0  0  0  0  0  0  0  0
    7.6180   40.8520   31.7600 C   0  0  0  0  0  0  0  0  0  0  0  0
  1 12  2  0
  1  4  1  0
  2  4  1  0
  3  6  1  0
  4 10  2  0
  5 13  1  0
  6 11  1  0
  7  5  1  0
  8  7  1  0
  8  9  1  0
 10  9  1  0
 12  8  1  0
 13  6  1  0
M  END
$$$$

     RDKit          3D

 10 10  0  0  0  0  0  0  0  0999 V2000
    8.1100   41.5390   29.9540 C   0  0  0  0  0  0  0  0  0  0  0  0
    7.9260   40.2700   30.8960 C   0  0  0  0  0  0  0  0  0  0  0  0
    8.9270   38.4570   31.1010 O   0  0  0  0  0  0  0  0  0  0  0  0
    8.7720   38.9880   28.8780 C   0  0  0  0  0  0  0  0  0  0  0  0
    8.7230   39.9540   28.3830 C   0  0  0  0  0  0  0  0  0  0  0  0
    9.4070   37.8190   28.3130 C   0  0  0  0  0  0  0  0  0  0  0  0
    8.3010   39.3350   30.0050 C   0  0  0  0  0  0  0  0  0  0  0  0
    9.8640   37.9150   27.2420 O   0  0  0  0  0  0  0  0  0  0  0  0
    9.3200   36.6330   28.9900 N   0  0  0  0  0  0  0  0  0  0  0  0
    8.7960   41.4250   28.7680 C   0  0  0  0  0  0  0  0  0  0  0  0
  1  2  1  0
  4  6  1  0
  4  7  1  0
  5 10  1  0
  5  4  1  0
  6  9  1  0
  7  2  1  0
  7  3  1  0
  8  6  2  0
 10  1  1  0
M  END
$$$$

     RDKit          3D

 12 13  0  0  0  0  0  0  0  0999 V2000
    9.3340   38.6200   30.2920 N   0  0  0  0  0  0  0  0  0  0  0  0
    9.3280   35.7480   28.6270 C   0  0  0  0  0  0  0  0  0  0  0  0
    8.9830   40.4000   28.9590 C   0  0  0  0  0  0  0  0  0  0  0  0
    8.8840   41.7140   29.0290 N   0  0  0  0  0  0  0  0  0  0  0  0
    9.2070   37.6400   29.6690 C   0  0  0  0  0  0  0  0  0  0  0  0
    8.5330   36.4220   29.9350 N   0  0  0  0  0  0  0  0  0  0  0  0
    9.4340   40.0760   32.4090 O   0  0  0  0  0  0  0  0  0  0  0  0
   10.0170   36.9980   28.7000 C   0  0  0  0  0  0  0  0  0  0  0  0
    8.3920   42.4410   30.0830 C   0  0  0  0  0  0  0  0  0  0  0  0
    8.7970   39.8520   30.2030 C   0  0  0  0  0  0  0  0  0  0  0  0
    8.8030   40.6460   31.3410 C   0  0  0  0  0  0  0  0  0  0  0  0
    9.4200   42.0960   31.0270 C   0  0  0  0  0  0  0  0  0  0  0  0
  2  8  1  0
  2  6  1  0
  3  4  1  0
  3 10  1  0
  4  9  1  0
  5  6  2  0
  5  1  1  0
  8  5  1  0
  9 12  1  0
 10  1  1  0
 10 11  1  0
 11  7  1  0
 12 11  1  0
M  END
$$$$

     RDKit          3D

 15 16  0  0  0  0  0  0  0  0999 V2000
    8.7590   42.2560   32.3020 C   0  0  0  0  0  0  0  0  0  0  0  0
    9.4710   37.6700   30.6490 C   0  0  0  0  0  0  0  0  0  0  0  0
    7.0170   42.0220   30.7440 C   0  0  0  0  0  0  0  0  0  0  0  0
    8.6410   37.3190   29.5570 C   0  0  0  0  0  0  0  0  0  0  0  0
    8.6330   35.9000   29.0500 C   0  0  0  0  0  0  0  0  0  0  0  0
    9.2380   42.5130   30.1200 C   0  0  0  0  0  0  0  0  0  0  0  0
    7.4210   39.5130   29.4150 C   0  0  0  0  0  0  0  0  0  0  0  0
    8.4040   40.5170   29.3370 C   0  0  0  0  0  0  0  0  0  0  0  0
   10.0810   38.9650   30.2960 C   0  0  0  0  0  0  0  0  0  0  0  0
   10.1740   41.4650   30.0810 C   0  0  0  0  0  0  0  0  0  0  0  0
    7.6330   38.1740   29.1200 C   0  0  0  0  0  0  0  0  0  0  0  0
    8.0520   41.6300   29.6580 C   0  0  0  0  0  0  0  0  0  0  0  0
   11.2810   41.6150   30.5930 O   0  0  0  0  0  0  0  0  0  0  0  0
    9.5330   40.2300   30.0730 C   0  0  0  0  0  0  0  0  0  0  0  0
    8.3340   42.4240   30.7600 C   0  0  0  0  0  0  0  0  0  0  0  0
  3 15  1  0
  4  2  1  0
  5  4  1  0
  6 15  1  0
  8  7  1  0
  8 12  1  0
  8 14  1  0
  9  2  1  0
 10  6  1  0
 10 13  2  0
 11  7  1  0
 11  4  2  0
 12 15  1  0
 14 10  1  0
 14  9  1  0
 15  1  1  0
M  END
$$$$

     RDKit          3D

  9 10  0  0  0  0  0  0  0  0999 V2000
   10.3250   38.5360   29.7040 O   0  0  0  0  0  0  0  0  0  0  0  0
    9.5630   40.5400   29.4210 C   0  0  0  0  0  0  0  0  0  0  0  0
   11.2440   40.4880   31.0390 C   0  0  0  0  0  0  0  0  0  0  0  0
    9.8860   42.4790   30.7840 C   0  0  0  0  0  0  0  0  0  0  0  0
    9.2590   41.9550   29.6190 C   0  0  0  0  0  0  0  0  0  0  0  0
    9.1840   39.9690   28.1410 C   0  0  0  0  0  0  0  0  0  0  0  0
   10.4200   39.8750   30.0980 C   0  0  0  0  0  0  0  0  0  0  0  0
    9.6910   38.5400   28.3680 C   0  0  0  0  0  0  0  0  0  0  0  0
   10.7650   41.7310   31.6070 C   0  0  0  0  0  0  0  0  0  0  0  0
  1  7  1  0
  2  6  1  0
  2  5  1  0
  2  7  1  0
  3  9  1  0
  4  9  2  0
  5  4  1  0
  6  8  1  0
  7  3  1  0
  8  1  1  0
M  END
$$$$

     RDKit          3D

 15 16  0  0  0  0  0  0  0  0999 V2000
    8.7340   38.7680   29.1980 C   0  0  0  0  0  0  0  0  0  0  0  0
    9.7270   40.9590   29.4610 C   0  0  0  0  0  0  0  0  0  0  0  0
    7.4930   41.5630   33.9070 C   0  0  0  0  0  0  0  0  0  0  0  0
    8.7760   40.7600   33.5270 C   0  0  0  0  0  0  0  0  0  0  0  0
    8.4270   39.8570   32.6060 N   0  0  0  0  0  0  0  0  0  0  0  0
    9.8790   38.8660   26.3730 O   0  0  0  0  0  0  0  0  0  0  0  0
    9.5790   39.9620   27.2410 C   0  0  0  0  0  0  0  0  0  0  0  0
    9.8060   40.7090   25.1060 C   0  0  0  0  0  0  0  0  0  0  0  0
    9.4320   39.8500   28.6580 C   0  0  0  0  0  0  0  0  0  0  0  0
    8.3710   38.7490   30.5400 C   0  0  0  0  0  0  0  0  0  0  0  0
    9.6100   40.4840   34.2810 O   0  0  0  0  0  0  0  0  0  0  0  0
   10.0380   39.3190   25.2260 C   0  0  0  0  0  0  0  0  0  0  0  0
    8.8430   39.7930   31.3780 C   0  0  0  0  0  0  0  0  0  0  0  0
    9.6360   40.6980   30.8880 C   0  0  0  0  0  0  0  0  0  0  0  0
    9.5310   41.0550   26.3630 C   0  0  0  0  0  0  0  0  0  0  0  0
  1 10  2  0
  2 14  1  0
  4  3  1  0
  4 11  2  0
  5  4  1  0
  6  7  1  0
  8 12  2  0
  8 15  1  0
  9  7  1  0
  9  1  1  0
  9  2  1  0
 10 13  1  0
 12  6  1  0
 13  5  2  3
 14 13  1  0
 15  7  2  0
M  END
$$$$

     RDKit          3D

 20 21  0  0  0  0  0  0  0  0999 V2000
    9.0920   39.7230   26.5860 O   0  0  0  0  0  0  0  0  0  0  0  0
    8.3600   35.8100   29.0180 C   0  0  0  0  0  0  0  0  0  0  0  0
    7.3430   35.3310   29.7170 C   0  0  0  0  0  0  0  0  0  0  0  0
    9.8240   40.2540   32.9240 C   0  0  0  0  0  0  0  0  0  0  0  0
    9.2550   37.8640   33.1850 O   0  0  0  0  0  0  0  0  0  0  0  0
    9.4760   38.9590   32.1850 C   0  0  0  0  0  0  0  0  0  0  0  0
    9.2600   41.7220   28.5480 O   0  0  0  0  0  0  0  0  0  0  0  0
    9.3980   39.3230   27.9940 S   0  0  0  0  0  0  0  0  0  0  0  0
    8.3070   37.9900   30.2520 O   0  0  0  0  0  0  0  0  0  0  0  0
    9.0100   34.9550   27.8870 C   0  0  0  0  0  0  0  0  0  0  0  0
    9.1600   37.1810   29.3140 C   0  0  0  0  0  0  0  0  0  0  0  0
    9.6970   42.6550   32.9880 C   0  0  0  0  0  0  0  0  0  0  0  0
    9.7100   41.4830   30.7270 C   0  0  0  0  0  0  0  0  0  0  0  0
   10.7130   39.5610   28.6740 O   0  0  0  0  0  0  0  0  0  0  0  0
    8.2630   40.3870   28.9170 C   0  0  0  0  0  0  0  0  0  0  0  0
    8.4100   40.5790   30.3560 C   0  0  0  0  0  0  0  0  0  0  0  0
    8.4980   39.1570   31.1660 C   0  0  0  0  0  0  0  0  0  0  0  0
   10.3580   40.1970   33.9450 O   0  0  0  0  0  0  0  0  0  0  0  0
    9.7600   41.6290   32.2780 C   0  0  0  0  0  0  0  0  0  0  0  0
    9.0760   37.9090   28.0460 N   0  0  0  0  0  0  0  0  0  0  0  0
  1  8  2  0
  2  3  2  0
  4 18  2  0
  6  4  1  0
  6  5  1  0
  8 20  1  0
  8 14  2  0
  8 15  1  0
 10  2  1  0
 11  2  1  0
 11  9  1  0
 13 19  1  0
 15  7  1  0
 15 16  1  0
 16 13  1  0
 16 17  1  0
 17  9  1  0
 17  6  1  0
 19  4  1  0
 19 12  2  0
 20 11  1  0
M  END
$$$$

     RDKit          3D

  6  5  0  0  0  0  0  0  0  0999 V2000
    7.8380   40.7810   32.0840 O   0  0  0  0  0  0  0  0  0  0  0  0
    8.5030   39.3220   30.3570 N   0  0  0  0  0  0  0  0  0  0  0  0
    8.4960   40.6400   30.6530 C   0  0  0  0  0  0  0  0  0  0  0  0
    9.4940   38.7670   31.6540 C   0  0  0  0  0  0  0  0  0  0  0  0
    8.1570   41.5410   29.9100 O   0  0  0  0  0  0  0  0  0  0  0  0
    8.2540   38.6710   29.2800 O   0  0  0  0  0  0  0  0  0  0  0  0
  2  3  1  0
  2  4  1  0
  3  1  1  0
  5  3  1  0
  6  2  1  0
M  END
$$$$

     RDKit          3D

 11 11  0  0  0  0  0  0  0  0999 V2000
    9.9640   39.3570   28.6520 C   0  0  0  0  0  0  0  0  0  0  0  0
    8.4430   38.8690   30.5880 C   0  0  0  0  0  0  0  0  0  0  0  0
    8.3460   37.5780   30.3910 C   0  0  0  0  0  0  0  0  0  0  0  0
   10.0410   37.8580   28.2820 S   0  0  0  0  0  0  0  0  0  0  0  0
    8.6450   41.1170   30.1990 C   0  0  0  0  0  0  0  0  0  0  0  0
    9.6730   40.3770   27.2550 C   0  0  0  0  0  0  0  0  0  0  0  0
    8.7990   35.3000   29.0290 Cl  0  0  0  0  0  0  0  0  0  0  0  0
    8.4230   42.1540   29.8160 O   0  0  0  0  0  0  0  0  0  0  0  0
    8.9680   36.9990   29.3460 C   0  0  0  0  0  0  0  0  0  0  0  0
    9.0580   39.9100   29.5870 C   0  0  0  0  0  0  0  0  0  0  0  0
    8.8570   41.2790   31.7840 O   0  0  0  0  0  0  0  0  0  0  0  0
  1  6  1  0
  1 10  1  0
  3  2  1  0
  4  1  1  0
  4  9  1  0
  5 11  1  0
  7  9  1  0
  8  5  2  0
  9  3  2  0
 10  5  1  0
 10  2  2  0
M  END
$$$$

     RDKit          3D

 20 21  0  0  0  0  0  0  0  0999 V2000
    9.9670   41.1350   32.8060 C   0  0  0  0  0  0  0  0  0  0  0  0
    8.7300   33.8300   27.4010 C   0  0  0  0  0  0  0  0  0  0  0  0
   10.2410   41.1170   29.7530 O   0  0  0  0  0  0  0  0  0  0  0  0
    9.2240   42.3580   32.0580 C   0  0  0  0  0  0  0  0  0  0  0  0
    9.3110   38.3380   29.6930 C   0  0  0  0  0  0  0  0  0  0  0  0
   10.2070   43.5380   32.1560 C   0  0  0  0  0  0  0  0  0  0  0  0
    7.9180   33.3140   28.5940 C   0  0  0  0  0  0  0  0  0  0  0  0
   11.3590   40.7150   30.6350 C   0  0  0  0  0  0  0  0  0  0  0  0
    9.5310   34.8520   28.0080 O   0  0  0  0  0  0  0  0  0  0  0  0
    7.9030   41.6060   29.7520 C   0  0  0  0  0  0  0  0  0  0  0  0
    9.9170   37.1710   28.5820 C   0  0  0  0  0  0  0  0  0  0  0  0
    7.0130   34.4020   29.1890 C   0  0  0  0  0  0  0  0  0  0  0  0
    9.1230   40.7100   29.5680 C   0  0  0  0  0  0  0  0  0  0  0  0
    7.9980   42.2080   31.1120 C   0  0  0  0  0  0  0  0  0  0  0  0
    8.8680   36.0640   28.2950 C   0  0  0  0  0  0  0  0  0  0  0  0
    6.9160   42.9950   31.4450 O   0  0  0  0  0  0  0  0  0  0  0  0
    7.6860   35.7480   29.3570 C   0  0  0  0  0  0  0  0  0  0  0  0
    9.1970   39.5860   28.9790 N   0  0  0  0  0  0  0  0  0  0  0  0
   10.7150   39.9160   31.8260 C   0  0  0  0  0  0  0  0  0  0  0  0
    7.2360   32.0880   28.2350 O   0  0  0  0  0  0  0  0  0  0  0  0
  2  9  1  0
  2  7  1  0
  3  8  1  0
  4  6  1  0
  4  1  1  0
  7 20  1  0
  7 12  1  0
  8 19  1  0
  9 15  1  0
 10 14  1  0
 11  5  1  0
 12 17  1  0
 13 18  1  0
 13 10  1  0
 13  3  1  0
 14 16  1  0
 14  4  1  0
 15 11  1  0
 15 17  1  0
 18  5  1  0
 19  1  1  0
M  END
$$$$

     RDKit          3D

 11 11  0  0  0  0  0  0  0  0999 V2000
    8.8320   39.7990   30.0560 C   0  0  0  0  0  0  0  0  0  0  0  0
    9.8040   37.0970   29.7180 C   0  0  0  0  0  0  0  0  0  0  0  0
    9.2920   39.0470   31.1350 C   0  0  0  0  0  0  0  0  0  0  0  0
    9.7980   38.6300   28.0250 C   0  0  0  0  0  0  0  0  0  0  0  0
    8.4230   39.1360   32.3380 C   0  0  0  0  0  0  0  0  0  0  0  0
    9.3760   39.7480   28.7460 C   0  0  0  0  0  0  0  0  0  0  0  0
    9.9770   37.4090   28.4190 C   0  0  0  0  0  0  0  0  0  0  0  0
    8.3430   41.0530   30.4210 O   0  0  0  0  0  0  0  0  0  0  0  0
    9.2330   40.8850   28.0120 O   0  0  0  0  0  0  0  0  0  0  0  0
    9.0870   39.9700   33.2380 N   0  0  0  0  0  0  0  0  0  0  0  0
    9.7190   37.7460   30.9100 C   0  0  0  0  0  0  0  0  0  0  0  0
  1  8  1  0
  1  3  1  0
  2 11  1  0
  3  5  1  0
  4  7  2  0
  4  6  1  0
  5 10  1  0
  6  9  1  0
  6  1  1  0
  7  2  1  0
 11  3  1  0
M  END
$$$$

     RDKit          3D

 12 13  0  0  0  0  0  0  0  0999 V2000
    8.8280   40.3010   27.5570 C   0  0  0  0  0  0  0  0  0  0  0  0
    8.8990   41.8850   29.4030 C   0  0  0  0  0  0  0  0  0  0  0  0
    9.6110   38.9600   32.3990 C   0  0  0  0  0  0  0  0  0  0  0  0
   10.7470   40.8080   30.8250 C   0  0  0  0  0  0  0  0  0  0  0  0
    8.2110   42.4760   31.7040 O   0  0  0  0  0  0  0  0  0  0  0  0
    8.6730   39.5620   30.0140 C   0  0  0  0  0  0  0  0  0  0  0  0
    9.3040   40.3220   32.6200 C   0  0  0  0  0  0  0  0  0  0  0  0
    8.6050   41.3390   31.5910 C   0  0  0  0  0  0  0  0  0  0  0  0
    9.3380   38.4110   30.9380 C   0  0  0  0  0  0  0  0  0  0  0  0
    9.0140   41.4980   28.0750 C   0  0  0  0  0  0  0  0  0  0  0  0
    8.8190   39.2990   28.5280 C   0  0  0  0  0  0  0  0  0  0  0  0
    9.2000   40.9250   30.3860 C   0  0  0  0  0  0  0  0  0  0  0  0
  1 10  1  0
  1 11  1  0
  2 12  1  0
  3  7  2  0
  6 11  1  0
  6 12  1  0
  6  9  1  0
  8  5  2  0
  8  7  1  0
  9  3  1  0
 10  2  1  0
 12  4  1  0
 12  8  1  0
M  END
$$$$

     RDKit          3D

 13 14  0  0  0  0  0  0  0  0999 V2000
    8.0920   41.8980   32.0240 C   0  0  0  0  0  0  0  0  0  0  0  0
    9.1600   37.4840   29.8440 C   0  0  0  0  0  0  0  0  0  0  0  0
    8.5110   41.1150   29.6060 C   0  0  0  0  0  0  0  0  0  0  0  0
    9.0580   42.1580   30.6820 C   0  0  0  0  0  0  0  0  0  0  0  0
    9.3130   43.3390   30.4520 O   0  0  0  0  0  0  0  0  0  0  0  0
    8.9230   39.5260   30.2770 C   0  0  0  0  0  0  0  0  0  0  0  0
    8.6000   40.5240   32.4750 C   0  0  0  0  0  0  0  0  0  0  0  0
    8.5940   37.1340   31.9590 C   0  0  0  0  0  0  0  0  0  0  0  0
    9.2480   39.4180   31.2260 N   0  0  0  0  0  0  0  0  0  0  0  0
    8.8000   39.2700   29.2210 C   0  0  0  0  0  0  0  0  0  0  0  0
    9.0640   37.9770   30.9900 C   0  0  0  0  0  0  0  0  0  0  0  0
    8.8540   39.2230   28.2180 C   0  0  0  0  0  0  0  0  0  0  0  0
    9.8110   36.5830   28.7750 O   0  0  0  0  0  0  0  0  0  0  0  0
  1  7  1  0
  2 13  1  0
  2 11  1  0
  3  4  1  0
  4  5  1  0
  4  1  1  0
  6  3  1  0
  6  9  1  0
  9  7  1  0
 10  2  1  0
 10  6  1  0
 11  9  1  0
 11  8  2  0
 12 10  2  0
M  END
$$$$

     RDKit          3D

 19 20  0  0  0  0  0  0  0  0999 V2000
    8.0130   38.0680   35.5160 C   0  0  0  0  0  0  0  0  0  0  0  0
    9.1920   39.6950   33.1860 C   0  0  0  0  0  0  0  0  0  0  0  0
    9.8960   40.3770   28.1780 C   0  0  0  0  0  0  0  0  0  0  0  0
   10.0590   39.0570   34.2330 C   0  0  0  0  0  0  0  0  0  0  0  0
    9.5240   39.2320   27.3480 C   0  0  0  0  0  0  0  0  0  0  0  0
    9.4800   39.3230   30.2250 C   0  0  0  0  0  0  0  0  0  0  0  0
    9.7790   40.5270   29.4470 N   0  0  0  0  0  0  0  0  0  0  0  0
    8.4690   38.8520   32.2710 N   0  0  0  0  0  0  0  0  0  0  0  0
    9.3510   37.8550   34.9780 C   0  0  0  0  0  0  0  0  0  0  0  0
   10.2380   40.3840   34.9240 C   0  0  0  0  0  0  0  0  0  0  0  0
   11.0420   42.4410   28.1880 C   0  0  0  0  0  0  0  0  0  0  0  0
   10.1710   36.5580   35.2360 C   0  0  0  0  0  0  0  0  0  0  0  0
   10.1720   41.5270   27.4120 N   0  0  0  0  0  0  0  0  0  0  0  0
    9.2120   38.0460   29.5030 C   0  0  0  0  0  0  0  0  0  0  0  0
    9.7830   39.7520   31.3140 C   0  0  0  0  0  0  0  0  0  0  0  0
   10.1370   40.3650   32.1390 N   0  0  0  0  0  0  0  0  0  0  0  0
    9.2110   38.1650   28.1550 C   0  0  0  0  0  0  0  0  0  0  0  0
    9.4910   41.7480   26.0300 C   0  0  0  0  0  0  0  0  0  0  0  0
    7.3170   38.5060   31.8820 C   0  0  0  0  0  0  0  0  0  0  0  0
  2  4  1  0
  3  7  2  0
  4 10  1  0
  4  9  1  0
  5 17  1  0
  5  3  1  0
  6 15  1  0
  7  6  2  0
  8  2  1  0
  9 12  1  0
  9  1  1  0
 13  3  1  0
 13 11  1  0
 14  6  1  0
 15 16  2  0
 15  8  1  0
 16  2  1  0
 17 14  2  0
 18 13  1  0
 19  8  1  0
M  END
$$$$

     RDKit          3D

  6  6  0  0  0  0  0  0  0  0999 V2000
    9.8540   37.3900   28.1950 C   0  0  0  0  0  0  0  0  0  0  0  0
    9.8960   40.9250   28.0890 O   0  0  0  0  0  0  0  0  0  0  0  0
    9.9990   38.4550   28.8330 C   0  0  0  0  0  0  0  0  0  0  0  0
    8.6630   40.6560   29.5250 O   0  0  0  0  0  0  0  0  0  0  0  0
    9.5990   40.2430   29.0030 C   0  0  0  0  0  0  0  0  0  0  0  0
    9.9770   38.5800   27.4480 C   0  0  0  0  0  0  0  0  0  0  0  0
  1  3  1  0
  2  5  2  0
  3  5  1  0
  5  4  1  0
  6  1  1  0
  6  3  1  0
M  END
$$$$

     RDKit          3D

  5  5  0  0  0  0  0  0  0  0999 V2000
    6.7290   42.6620   31.1680 O   0  0  0  0  0  0  0  0  0  0  0  0
    8.8550   41.9180   29.5090 C   0  0  0  0  0  0  0  0  0  0  0  0
    7.5820   40.4830   29.4380 O   0  0  0  0  0  0  0  0  0  0  0  0
    7.5370   41.6570   30.2600 C   0  0  0  0  0  0  0  0  0  0  0  0
    8.6350   40.7930   28.5270 C   0  0  0  0  0  0  0  0  0  0  0  0
  2  4  1  0
  3  4  1  0
  4  1  2  0
  5  3  1  0
  5  2  1  0
M  END
$$$$
