
     RDKit          3D

 23 25  0  0  0  0  0  0  0  0999 V2000
    6.8760    3.3890   -3.9290 C   0  0  0  0  0  0  0  0  0  0  0  0
    6.5190    1.2500   -4.2480 S   0  0  0  0  0  0  0  0  0  0  0  0
    3.6550    3.9320   -4.2420 O   0  0  0  0  0  0  0  0  0  0  0  0
    9.3940    6.0680   -3.3990 C   0  0  0  0  0  0  0  0  0  0  0  0
    3.4820    1.8930   -3.1710 C   0  0  0  0  0  0  0  0  0  0  0  0
    0.8080    1.3390   -4.4430 C   0  0  0  0  0  0  0  0  0  0  0  0
    0.6380    1.4050   -5.6430 O   0  0  0  0  0  0  0  0  0  0  0  0
    5.5930    0.0870   -3.3220 C   0  0  0  0  0  0  0  0  0  0  0  0
    3.5450    1.0840   -4.5420 O   0  0  0  0  0  0  0  0  0  0  0  0
    2.3620    1.9730   -4.1020 C   0  0  0  0  0  0  0  0  0  0  0  0
   10.6040    8.4040   -3.1460 C   0  0  0  0  0  0  0  0  0  0  0  0
    0.2670    1.4330   -3.3660 O   0  0  0  0  0  0  0  0  0  0  0  0
    7.9850    7.9470   -2.7350 C   0  0  0  0  0  0  0  0  0  0  0  0
    2.5420    3.3570   -4.8430 C   0  0  0  0  0  0  0  0  0  0  0  0
    9.3910    8.6020   -2.2430 C   0  0  0  0  0  0  0  0  0  0  0  0
    5.8880    2.0310   -6.0670 C   0  0  0  0  0  0  0  0  0  0  0  0
    4.3550    3.6040   -5.0720 C   0  0  0  0  0  0  0  0  0  0  0  0
    7.0570    2.7490   -3.4450 C   0  0  0  0  0  0  0  0  0  0  0  0
    7.4940    4.5150   -4.7240 C   0  0  0  0  0  0  0  0  0  0  0  0
    7.8590    5.6980   -5.0270 C   0  0  0  0  0  0  0  0  0  0  0  0
    5.4650    2.8630   -5.0070 C   0  0  0  0  0  0  0  0  0  0  0  0
    8.3030    6.9630   -3.9140 C   0  0  0  0  0  0  0  0  0  0  0  0
   10.8110    6.5530   -3.1970 C   0  0  0  0  0  0  0  0  0  0  0  0
  1 18  1  0
  2 18  1  0
  2  8  1  0
  4 23  1  0
  6 10  1  0
  6 12  1  0
  7  6  2  0
  9 10  1  0
  9  5  1  0
 10 14  1  0
 10  5  1  0
 11 15  1  0
 13 15  1  0
 14  3  1  0
 17 21  1  0
 17  3  1  0
 19  1  2  0
 20 19  2  0
 20 22  1  0
 21 16  1  0
 21  2  1  0
 21  1  1  0
 22  4  1  0
 22 13  1  0
 23 11  1  0
M  END
$$$$

     RDKit          3D

 10 10  0  0  0  0  0  0  0  0999 V2000
   10.6880    1.4360   -2.0430 S   0  0  0  0  0  0  0  0  0  0  0  0
    8.2300    1.0060   -2.8660 N   0  0  0  0  0  0  0  0  0  0  0  0
    8.9970    2.7430   -3.1120 O   0  0  0  0  0  0  0  0  0  0  0  0
    7.2950    0.1960   -4.7820 O   0  0  0  0  0  0  0  0  0  0  0  0
    9.1400    1.6380   -2.7770 C   0  0  0  0  0  0  0  0  0  0  0  0
    5.8550    1.3550   -3.1510 O   0  0  0  0  0  0  0  0  0  0  0  0
    7.1240    2.5820   -4.7620 O   0  0  0  0  0  0  0  0  0  0  0  0
   10.1080    3.5390   -3.3370 C   0  0  0  0  0  0  0  0  0  0  0  0
   11.1760    3.0560   -2.6990 C   0  0  0  0  0  0  0  0  0  0  0  0
    7.0740    1.2710   -3.9270 S   0  0  0  0  0  0  0  0  0  0  0  0
  3  5  1  0
  4 10  1  0
  5  2  1  0
  5  1  1  0
  7 10  1  0
  8  3  1  0
  8  9  1  0
  9  1  1  0
 10  6  1  0
 10  2  1  0
M  END
$$$$

     RDKit          3D

 92101  0  0  0  0  0  0  0  0999 V2000
    7.2420    5.3860   -4.9510 C   0  0  0  0  0  0  0  0  0  0  0  0
    0.7390    3.8540   -3.5370 O   0  0  0  0  0  0  0  0  0  0  0  0
    5.5730    5.5200    3.6550 C   0  0  0  0  0  0  0  0  0  0  0  0
    3.9940    1.6940    4.4540 O   0  0  0  0  0  0  0  0  0  0  0  0
   15.7130    2.7560   -2.4070 C   0  0  0  0  0  0  0  0  0  0  0  0
   16.7350    3.8610   -2.6200 C   0  0  0  0  0  0  0  0  0  0  0  0
    8.3640    5.5630   -3.8970 O   0  0  0  0  0  0  0  0  0  0  0  0
   11.5820    2.7950   -2.5460 C   0  0  0  0  0  0  0  0  0  0  0  0
    5.7540    8.6040    0.1660 C   0  0  0  0  0  0  0  0  0  0  0  0
   11.7450    2.2370    0.8450 O   0  0  0  0  0  0  0  0  0  0  0  0
   12.4670   -0.2280    2.0560 C   0  0  0  0  0  0  0  0  0  0  0  0
    4.2280    6.9940   -0.9480 O   0  0  0  0  0  0  0  0  0  0  0  0
    0.7760    3.3980    2.5610 C   0  0  0  0  0  0  0  0  0  0  0  0
    7.0250    2.0230    4.7750 O   0  0  0  0  0  0  0  0  0  0  0  0
    0.2140    6.7740    1.1390 C   0  0  0  0  0  0  0  0  0  0  0  0
   13.5920    2.0310   -1.8360 C   0  0  0  0  0  0  0  0  0  0  0  0
    6.7600    6.7090   -8.2970 C   0  0  0  0  0  0  0  0  0  0  0  0
    9.0100    0.8090    5.0530 O   0  0  0  0  0  0  0  0  0  0  0  0
    5.7480    5.8250    2.2060 N   0  0  0  0  0  0  0  0  0  0  0  0
   15.3220    2.0010    1.6350 C   0  0  0  0  0  0  0  0  0  0  0  0
    6.0910    6.9610   -2.6110 O   0  0  0  0  0  0  0  0  0  0  0  0
   12.3160    1.8250   -1.9310 N   0  0  0  0  0  0  0  0  0  0  0  0
    5.5990    5.6540   -3.1180 C   0  0  0  0  0  0  0  0  0  0  0  0
    2.2410    3.3160   -1.8700 C   0  0  0  0  0  0  0  0  0  0  0  0
    6.3090    1.0250    3.9160 C   0  0  0  0  0  0  0  0  0  0  0  0
   17.1000    4.9590    1.0460 C   0  0  0  0  0  0  0  0  0  0  0  0
    0.1650    3.8100    3.8710 C   0  0  0  0  0  0  0  0  0  0  0  0
    9.5720    1.6480    4.0370 C   0  0  0  0  0  0  0  0  0  0  0  0
   11.1900    3.7510   -2.0100 O   0  0  0  0  0  0  0  0  0  0  0  0
   11.6450    0.9830    4.4940 F   0  0  0  0  0  0  0  0  0  0  0  0
   -0.0020    6.8730   -0.1470 O   0  0  0  0  0  0  0  0  0  0  0  0
    2.7040    6.8090    2.3670 C   0  0  0  0  0  0  0  0  0  0  0  0
    2.5750    7.7900    1.3130 C   0  0  0  0  0  0  0  0  0  0  0  0
   18.3360    5.1510   -1.3460 C   0  0  0  0  0  0  0  0  0  0  0  0
    3.0010    1.6970    5.2840 C   0  0  0  0  0  0  0  0  0  0  0  0
   13.0960    1.2210    2.4630 O   0  0  0  0  0  0  0  0  0  0  0  0
    1.2120    8.9440    1.7310 P   0  0  0  0  0  0  0  0  0  0  0  0
    4.9640    8.4030    1.3460 O   0  0  0  0  0  0  0  0  0  0  0  0
    0.8840    1.4740    3.5470 C   0  0  0  0  0  0  0  0  0  0  0  0
    0.9700    5.1380   -3.6940 C   0  0  0  0  0  0  0  0  0  0  0  0
    2.9600    6.6940   -3.2160 C   0  0  0  0  0  0  0  0  0  0  0  0
    1.7160    2.4310    4.5420 C   0  0  0  0  0  0  0  0  0  0  0  0
    0.9100    5.5590    1.5290 C   0  0  0  0  0  0  0  0  0  0  0  0
   14.2280    3.2590   -2.5120 C   0  0  0  0  0  0  0  0  0  0  0  0
   -0.2720    4.6900    1.5330 C   0  0  0  0  0  0  0  0  0  0  0  0
   11.5630    0.1860    2.7050 C   0  0  0  0  0  0  0  0  0  0  0  0
    9.5970    5.0600   -4.4060 C   0  0  0  0  0  0  0  0  0  0  0  0
    6.2840    6.8510   -6.8010 C   0  0  0  0  0  0  0  0  0  0  0  0
   16.5850    4.6650    2.4340 C   0  0  0  0  0  0  0  0  0  0  0  0
   15.7560    1.6670   -1.4370 N   0  0  0  0  0  0  0  0  0  0  0  0
   12.7760    2.0080    1.4140 C   0  0  0  0  0  0  0  0  0  0  0  0
   18.0870    5.8610    0.9150 N   0  0  0  0  0  0  0  0  0  0  0  0
    2.1040    2.9150   -3.3460 C   0  0  0  0  0  0  0  0  0  0  0  0
   11.1780    2.9360   -4.0720 C   0  0  0  0  0  0  0  0  0  0  0  0
   15.1320    3.5930    2.2660 S   0  0  0  0  0  0  0  0  0  0  0  0
   18.7350    6.0670   -0.2770 C   0  0  0  0  0  0  0  0  0  0  0  0
    3.6590    8.9000    1.3360 C   0  0  0  0  0  0  0  0  0  0  0  0
    3.3410    7.3040    3.6450 O   0  0  0  0  0  0  0  0  0  0  0  0
    9.7620    3.5470   -4.1110 C   0  0  0  0  0  0  0  0  0  0  0  0
   14.0330    0.0830   -0.6680 O   0  0  0  0  0  0  0  0  0  0  0  0
    6.0020    5.2300   -4.5920 C   0  0  0  0  0  0  0  0  0  0  0  0
    9.1830   -2.0620    3.1030 C   0  0  0  0  0  0  0  0  0  0  0  0
    0.0400    2.7610    3.0160 C   0  0  0  0  0  0  0  0  0  0  0  0
   -0.8600    4.5100    0.4070 O   0  0  0  0  0  0  0  0  0  0  0  0
    4.9370    5.3110   -5.6570 N   0  0  0  0  0  0  0  0  0  0  0  0
    1.8730    4.7100   -1.5510 C   0  0  0  0  0  0  0  0  0  0  0  0
    4.9640    2.7530    3.9640 C   0  0  0  0  0  0  0  0  0  0  0  0
    1.3770    9.7460    2.8540 O   0  0  0  0  0  0  0  0  0  0  0  0
    4.8920    4.1480    3.7680 C   0  0  0  0  0  0  0  0  0  0  0  0
    6.1630   -0.5290    3.8660 O   0  0  0  0  0  0  0  0  0  0  0  0
   16.7170    0.7190   -1.9010 C   0  0  0  0  0  0  0  0  0  0  0  0
    6.1820    3.3810    4.2110 C   0  0  0  0  0  0  0  0  0  0  0  0
    9.1450    0.5720    3.4030 C   0  0  0  0  0  0  0  0  0  0  0  0
    0.4460    9.5980    0.5920 O   0  0  0  0  0  0  0  0  0  0  0  0
   -0.0610    7.9360    1.9360 O   0  0  0  0  0  0  0  0  0  0  0  0
   17.1770    4.4900   -1.2430 C   0  0  0  0  0  0  0  0  0  0  0  0
    9.9050    3.1360    3.7940 C   0  0  0  0  0  0  0  0  0  0  0  0
    4.9440    6.4320   -6.5330 C   0  0  0  0  0  0  0  0  0  0  0  0
    5.0310    1.4770    3.3710 C   0  0  0  0  0  0  0  0  0  0  0  0
   14.0710    2.7200    1.1510 C   0  0  0  0  0  0  0  0  0  0  0  0
    5.5450    8.2570   -2.2800 C   0  0  0  0  0  0  0  0  0  0  0  0
   14.4450    1.0780   -1.2200 C   0  0  0  0  0  0  0  0  0  0  0  0
    7.3000    6.7750   -5.7010 C   0  0  0  0  0  0  0  0  0  0  0  0
    3.7720    6.6400   -2.1940 C   0  0  0  0  0  0  0  0  0  0  0  0
    2.0480    5.5220    2.6320 O   0  0  0  0  0  0  0  0  0  0  0  0
    4.4330    5.1710   -2.5120 C   0  0  0  0  0  0  0  0  0  0  0  0
    8.8240   -0.5500    2.4820 C   0  0  0  0  0  0  0  0  0  0  0  0
   16.6420    4.3080   -0.0060 N   0  0  0  0  0  0  0  0  0  0  0  0
    1.1560    2.1810    5.9340 O   0  0  0  0  0  0  0  0  0  0  0  0
    1.6670    5.7230   -2.4010 C   0  0  0  0  0  0  0  0  0  0  0  0
    4.7940    8.2910   -0.9880 C   0  0  0  0  0  0  0  0  0  0  0  0
   10.9050    0.8680    3.8660 C   0  0  0  0  0  0  0  0  0  0  0  0
  1 61  1  0
  1  7  1  0
  2 53  1  0
  3 69  1  0
  4 35  1  0
  5  6  1  0
  5 50  1  0
  6 76  1  0
  8 29  2  0
  8 22  1  0
  9 38  1  0
 10 51  2  0
 11 36  1  0
 11 46  1  0
 13 63  1  0
 15 43  1  0
 15 75  1  0
 16 82  1  0
 19  3  1  0
 20 55  1  0
 21 81  1  0
 22 16  2  3
 23 61  1  0
 23 21  1  0
 23 86  1  0
 24 66  2  0
 25 14  1  0
 26 49  1  0
 28 77  1  0
 28 18  1  0
 31 15  2  0
 32 85  1  0
 32 58  2  0
 33 57  1  0
 33 37  1  0
 33 32  1  0
 34 76  1  0
 34 56  1  0
 37 74  2  0
 37 75  1  0
 37 68  1  0
 39 42  1  0
 40  2  1  0
 40 90  1  0
 41 90  1  0
 41 84  1  0
 42 35  1  0
 42 89  1  0
 43 45  1  0
 43 85  1  0
 44  5  1  0
 44 16  1  0
 45 64  1  0
 45 13  1  0
 46 92  1  0
 47 59  1  0
 47  7  1  0
 48 17  1  0
 48 78  1  0
 48 83  1  0
 50 82  1  0
 51 36  1  0
 52 26  2  0
 53 24  1  0
 54  8  1  0
 55 49  1  0
 56 52  1  0
 57 38  1  0
 59 54  1  0
 63 39  1  0
 63 27  1  0
 65 61  2  0
 67 72  1  0
 69 67  1  0
 69 72  1  0
 70 25  2  0
 71 50  1  0
 72 14  1  0
 73 28  1  0
 73 18  1  0
 76 88  2  0
 78 65  1  0
 79 25  1  0
 79 67  1  0
 79  4  1  0
 80 51  1  0
 80 20  1  0
 80 55  1  0
 81 91  1  0
 82 60  2  0
 83  1  1  0
 84 12  1  0
 86 84  1  0
 87 62  1  0
 87 73  1  0
 88 26  2  0
 90 66  1  0
 91 12  1  0
 91  9  1  0
 92 28  1  0
 92 30  1  0
M  END
$$$$

     RDKit          3D

 75 86  0  0  0  0  0  0  0  0999 V2000
    4.6620    7.4130    2.4160 O   0  0  0  0  0  0  0  0  0  0  0  0
    8.1820    0.8970    2.5760 C   0  0  0  0  0  0  0  0  0  0  0  0
   10.6250    0.8350   -3.1250 O   0  0  0  0  0  0  0  0  0  0  0  0
    8.7630    2.6640   -3.7260 C   0  0  0  0  0  0  0  0  0  0  0  0
    7.1380    0.1320   -0.6700 C   0  0  0  0  0  0  0  0  0  0  0  0
    4.0230    6.5690    3.0440 C   0  0  0  0  0  0  0  0  0  0  0  0
    8.1190   -0.4950    0.5590 C   0  0  0  0  0  0  0  0  0  0  0  0
    7.5730    2.3040   -2.2350 C   0  0  0  0  0  0  0  0  0  0  0  0
    4.0110    4.2820   -1.9680 S   0  0  0  0  0  0  0  0  0  0  0  0
    5.8590    7.2170    5.2790 C   0  0  0  0  0  0  0  0  0  0  0  0
    9.1910    0.6540    0.2840 C   0  0  0  0  0  0  0  0  0  0  0  0
    6.9280    1.5250    0.3700 O   0  0  0  0  0  0  0  0  0  0  0  0
    9.2090    3.2910   -0.1850 C   0  0  0  0  0  0  0  0  0  0  0  0
   11.0740   -1.3760   -2.1370 C   0  0  0  0  0  0  0  0  0  0  0  0
    4.3060    2.6420   -1.6640 C   0  0  0  0  0  0  0  0  0  0  0  0
    8.3650    5.2660    1.4590 C   0  0  0  0  0  0  0  0  0  0  0  0
    8.8120    5.8140    1.7770 C   0  0  0  0  0  0  0  0  0  0  0  0
    6.1180    1.0440   -3.2800 O   0  0  0  0  0  0  0  0  0  0  0  0
    9.7000    2.9630   -2.2360 C   0  0  0  0  0  0  0  0  0  0  0  0
   11.4700    5.5340    3.1540 O   0  0  0  0  0  0  0  0  0  0  0  0
    9.6560    4.0580    2.9730 O   0  0  0  0  0  0  0  0  0  0  0  0
    7.5950    3.1700   -4.5370 C   0  0  0  0  0  0  0  0  0  0  0  0
    4.0310    0.3900   -2.4020 C   0  0  0  0  0  0  0  0  0  0  0  0
   10.5510    2.1350    3.0470 C   0  0  0  0  0  0  0  0  0  0  0  0
   10.5050    1.4650   -0.0370 C   0  0  0  0  0  0  0  0  0  0  0  0
    6.4070    6.9430    3.8300 C   0  0  0  0  0  0  0  0  0  0  0  0
    5.2700    2.9070   -3.8780 O   0  0  0  0  0  0  0  0  0  0  0  0
    2.6430    4.4130   -2.4670 C   0  0  0  0  0  0  0  0  0  0  0  0
    9.7650    3.1350    2.1290 C   0  0  0  0  0  0  0  0  0  0  0  0
    6.4370    8.7460    2.3970 O   0  0  0  0  0  0  0  0  0  0  0  0
    6.6970    6.6510    1.5310 C   0  0  0  0  0  0  0  0  0  0  0  0
   10.9650    4.3120   -1.5570 O   0  0  0  0  0  0  0  0  0  0  0  0
    8.4470    2.6560   -1.2480 C   0  0  0  0  0  0  0  0  0  0  0  0
    6.2070    0.7620    1.5540 C   0  0  0  0  0  0  0  0  0  0  0  0
    5.3480    1.9320    3.7320 C   0  0  0  0  0  0  0  0  0  0  0  0
   10.8140    4.7900    2.7840 C   0  0  0  0  0  0  0  0  0  0  0  0
    7.7250    6.2900    0.8720 C   0  0  0  0  0  0  0  0  0  0  0  0
    9.1800    7.4360    2.6890 C   0  0  0  0  0  0  0  0  0  0  0  0
    7.0200    3.6510   -2.5310 O   0  0  0  0  0  0  0  0  0  0  0  0
   11.1300    4.9870    1.5080 C   0  0  0  0  0  0  0  0  0  0  0  0
    4.9040    1.7520   -2.6630 C   0  0  0  0  0  0  0  0  0  0  0  0
    5.7450    3.5920    3.8200 O   0  0  0  0  0  0  0  0  0  0  0  0
    9.8320    4.6910   -1.2030 C   0  0  0  0  0  0  0  0  0  0  0  0
   10.8480    3.8660   -0.9100 C   0  0  0  0  0  0  0  0  0  0  0  0
    7.1580    7.4530    0.4940 C   0  0  0  0  0  0  0  0  0  0  0  0
   10.2490    3.7320    0.8930 C   0  0  0  0  0  0  0  0  0  0  0  0
    6.3750    3.5770   -4.0130 C   0  0  0  0  0  0  0  0  0  0  0  0
    5.3710    1.6430    5.0900 C   0  0  0  0  0  0  0  0  0  0  0  0
    8.8470    1.5340   -4.3890 O   0  0  0  0  0  0  0  0  0  0  0  0
    8.5510   -0.5460    2.0870 O   0  0  0  0  0  0  0  0  0  0  0  0
    7.7880    1.2740    5.0390 N   0  0  0  0  0  0  0  0  0  0  0  0
    7.7460   -0.4350   -2.8620 C   0  0  0  0  0  0  0  0  0  0  0  0
    8.8020    0.8950    4.0400 C   0  0  0  0  0  0  0  0  0  0  0  0
    6.8400    3.6480    3.0840 C   0  0  0  0  0  0  0  0  0  0  0  0
    4.5970   -1.5050    0.3490 C   0  0  0  0  0  0  0  0  0  0  0  0
    6.6360    2.0640    2.9980 C   0  0  0  0  0  0  0  0  0  0  0  0
    5.8610    7.4360    2.6680 C   0  0  0  0  0  0  0  0  0  0  0  0
    7.0620   -0.8370   -1.6360 O   0  0  0  0  0  0  0  0  0  0  0  0
    8.1150    1.5210    1.2350 C   0  0  0  0  0  0  0  0  0  0  0  0
   10.5470    2.1400   -1.4060 C   0  0  0  0  0  0  0  0  0  0  0  0
    6.2200    4.5840   -0.1670 C   0  0  0  0  0  0  0  0  0  0  0  0
    6.0160    5.3430    0.9540 C   0  0  0  0  0  0  0  0  0  0  0  0
    7.9670    7.2320    3.8420 O   0  0  0  0  0  0  0  0  0  0  0  0
   11.3950    6.0640    0.6480 O   0  0  0  0  0  0  0  0  0  0  0  0
    3.4470   -0.2950    1.0560 C   0  0  0  0  0  0  0  0  0  0  0  0
    3.1370   -1.3050    2.2420 O   0  0  0  0  0  0  0  0  0  0  0  0
    9.9350    1.1210    4.6130 C   0  0  0  0  0  0  0  0  0  0  0  0
   11.9270    1.4010    0.5230 O   0  0  0  0  0  0  0  0  0  0  0  0
   10.8880    1.0440   -2.3470 C   0  0  0  0  0  0  0  0  0  0  0  0
    5.7600   -0.9190    1.2460 O   0  0  0  0  0  0  0  0  0  0  0  0
    4.7890    0.6730    1.4130 C   0  0  0  0  0  0  0  0  0  0  0  0
   11.3470   -0.0150   -1.8620 O   0  0  0  0  0  0  0  0  0  0  0  0
    7.3120    0.9850   -3.1690 C   0  0  0  0  0  0  0  0  0  0  0  0
    8.3980    4.0340    0.8060 N   0  0  0  0  0  0  0  0  0  0  0  0
    4.3270    1.5140    2.8400 O   0  0  0  0  0  0  0  0  0  0  0  0
  1 57  1  0
  1  6  1  0
  2 50  1  0
  2 53  1  0
  3 69  2  0
  4 49  1  0
  4 19  1  0
  4  8  1  0
  7  5  1  0
  7 50  1  0
  8 39  1  0
  8 33  1  0
  9 15  1  0
 11  7  1  0
 11 59  1  0
 12 59  1  0
 12 34  1  0
 13 74  1  0
 13 46  1  0
 14 72  1  0
 16 17  1  0
 17 38  1  0
 18 73  1  0
 18 41  1  0
 19 60  1  0
 19 33  1  0
 22 47  1  0
 22  4  1  0
 24 67  1  0
 25 11  1  0
 25 68  1  0
 26 63  1  0
 26 10  1  0
 27 41  1  0
 28  9  1  0
 29 21  1  0
 29 24  1  0
 30 57  1  0
 31 57  1  0
 32 43  1  0
 32 44  1  0
 33 13  1  0
 35 42  1  0
 35 48  1  0
 36 21  1  0
 36 20  2  0
 37 16  1  0
 37 31  1  0
 38 63  1  0
 40 36  1  0
 41 23  1  0
 41 15  1  0
 45 37  1  0
 45 31  1  0
 46 40  1  0
 46 29  1  0
 47 27  1  0
 47 39  1  0
 52 58  1  0
 53 67  1  0
 53 51  1  0
 54 42  1  0
 55 65  1  0
 55 70  1  0
 56 54  1  0
 56 35  1  0
 57 26  1  0
 58  5  1  0
 59  2  1  0
 60 44  1  0
 60 25  1  0
 61 62  2  0
 62 31  1  0
 64 40  1  0
 65 71  1  0
 65 66  1  0
 69 72  1  0
 69 60  1  0
 70 34  1  0
 71 34  1  0
 71 75  1  0
 73 52  1  0
 73  8  1  0
 74 46  1  0
 74 16  1  0
 75 35  1  0
M  END
$$$$
