
     RDKit          3D

 39 40  0  0  0  0  0  0  0  0999 V2000
    6.5570    4.4590    7.9360 O   0  0  0  0  0  0  0  0  0  0  0  0
   10.7750    4.3500    3.1940 C   0  0  0  0  0  0  0  0  0  0  0  0
    5.3140    5.5540    4.7150 O   0  0  0  0  0  0  0  0  0  0  0  0
   12.3700    1.2540    0.1670 O   0  0  0  0  0  0  0  0  0  0  0  0
    9.9020    9.9080    3.6460 O   0  0  0  0  0  0  0  0  0  0  0  0
    6.0820    9.1340    0.6490 C   0  0  0  0  0  0  0  0  0  0  0  0
    5.4080    2.8060    4.9230 O   0  0  0  0  0  0  0  0  0  0  0  0
   10.7980    0.3060    0.2040 O   0  0  0  0  0  0  0  0  0  0  0  0
    5.1360    9.5250   -0.2020 O   0  0  0  0  0  0  0  0  0  0  0  0
   10.2720    0.8730    3.6440 C   0  0  0  0  0  0  0  0  0  0  0  0
    9.9920    3.5660    4.4880 S   0  0  0  0  0  0  0  0  0  0  0  0
    6.7990    7.4700    6.9380 O   0  0  0  0  0  0  0  0  0  0  0  0
   11.4220    1.1890    0.7130 C   0  0  0  0  0  0  0  0  0  0  0  0
    7.3820    9.4900    3.0070 C   0  0  0  0  0  0  0  0  0  0  0  0
   11.9910    2.3250    2.8580 C   0  0  0  0  0  0  0  0  0  0  0  0
   11.3010    1.0150    2.3530 C   0  0  0  0  0  0  0  0  0  0  0  0
   11.4020    3.4000    2.3630 N   0  0  0  0  0  0  0  0  0  0  0  0
    9.0550    6.2460    6.4080 O   0  0  0  0  0  0  0  0  0  0  0  0
    5.1060    8.1990    2.0890 S   0  0  0  0  0  0  0  0  0  0  0  0
    7.3890    5.0320    5.2900 C   0  0  0  0  0  0  0  0  0  0  0  0
    8.8260   10.4100    2.7540 S   0  0  0  0  0  0  0  0  0  0  0  0
    8.1900    3.8020    4.5730 O   0  0  0  0  0  0  0  0  0  0  0  0
    9.2430   10.1990    1.3730 O   0  0  0  0  0  0  0  0  0  0  0  0
    6.5150    5.3910    3.9320 C   0  0  0  0  0  0  0  0  0  0  0  0
    8.0350    7.3210    4.6710 O   0  0  0  0  0  0  0  0  0  0  0  0
   11.8730   -0.2060    2.3280 F   0  0  0  0  0  0  0  0  0  0  0  0
    4.8350    1.9070    8.5540 C   0  0  0  0  0  0  0  0  0  0  0  0
    6.5280    4.3360    6.6010 C   0  0  0  0  0  0  0  0  0  0  0  0
    7.2250    8.4930    4.3310 C   0  0  0  0  0  0  0  0  0  0  0  0
    6.0930    2.9260    6.2030 C   0  0  0  0  0  0  0  0  0  0  0  0
    6.2440   11.3540    1.7320 O   0  0  0  0  0  0  0  0  0  0  0  0
    6.5690    7.0600    2.3580 C   0  0  0  0  0  0  0  0  0  0  0  0
    5.8210    5.4490    8.4140 O   0  0  0  0  0  0  0  0  0  0  0  0
    7.1230    6.6160    3.4020 C   0  0  0  0  0  0  0  0  0  0  0  0
    6.5720   10.1610    1.6570 C   0  0  0  0  0  0  0  0  0  0  0  0
    4.7600    1.0890    7.1710 O   0  0  0  0  0  0  0  0  0  0  0  0
    5.2260    2.4520    7.3180 C   0  0  0  0  0  0  0  0  0  0  0  0
    8.6010   11.7670    2.9400 O   0  0  0  0  0  0  0  0  0  0  0  0
    7.6210    6.6730    5.9940 P   0  0  0  0  0  0  0  0  0  0  0  0
  1 33  1  0
  2 11  1  0
  4 13  1  0
  6  9  1  0
  6 35  1  0
  6 19  1  0
  8 13  1  0
 11 22  1  0
 13 16  1  0
 14 21  1  0
 14 29  1  0
 16 15  1  0
 16 10  1  0
 17 15  1  0
 17  2  1  0
 19 32  1  0
 20 22  1  0
 20 39  1  0
 20 28  1  0
 21 38  1  0
 21  5  1  0
 23 21  1  0
 24  3  1  0
 24 20  1  0
 25 39  1  0
 26 16  1  0
 28  1  1  0
 29 25  1  0
 30  7  1  0
 30 28  1  0
 32 34  1  0
 34 24  1  0
 35 31  2  0
 35 14  1  0
 36 37  1  0
 36 27  1  0
 37 30  1  0
 37 27  1  0
 39 18  2  0
 39 12  1  0
M  END
$$$$

     RDKit          3D

 35 36  0  0  0  0  0  0  0  0999 V2000
    9.8730    1.2290    4.7830 C   0  0  0  0  0  0  0  0  0  0  0  0
   10.0980   11.2490    2.4910 O   0  0  0  0  0  0  0  0  0  0  0  0
    8.5020    4.8770    4.0100 C   0  0  0  0  0  0  0  0  0  0  0  0
   11.8850    3.5240    2.5060 O   0  0  0  0  0  0  0  0  0  0  0  0
    4.1820   -0.8860    3.8240 C   0  0  0  0  0  0  0  0  0  0  0  0
    7.7380    7.5560    3.3360 C   0  0  0  0  0  0  0  0  0  0  0  0
   10.8750    8.8170    3.6750 C   0  0  0  0  0  0  0  0  0  0  0  0
   11.5210    4.2370    3.3990 C   0  0  0  0  0  0  0  0  0  0  0  0
    4.7130   -3.2940    3.9380 C   0  0  0  0  0  0  0  0  0  0  0  0
    7.8010    8.3550    4.5200 O   0  0  0  0  0  0  0  0  0  0  0  0
    9.9710    2.7320    4.6260 C   0  0  0  0  0  0  0  0  0  0  0  0
    5.6160    0.8270    6.4560 O   0  0  0  0  0  0  0  0  0  0  0  0
    5.8800    1.0320    3.2410 C   0  0  0  0  0  0  0  0  0  0  0  0
    9.3680   10.2420    1.8340 P   0  0  0  0  0  0  0  0  0  0  0  0
    6.1060    1.9350    4.1190 C   0  0  0  0  0  0  0  0  0  0  0  0
    6.8720    6.5310    3.6560 C   0  0  0  0  0  0  0  0  0  0  0  0
    7.2410    5.6160    4.0120 C   0  0  0  0  0  0  0  0  0  0  0  0
    4.2870   -2.1060    2.9800 C   0  0  0  0  0  0  0  0  0  0  0  0
    7.9860   10.7780    1.6860 O   0  0  0  0  0  0  0  0  0  0  0  0
    4.3120    0.5020    3.0450 C   0  0  0  0  0  0  0  0  0  0  0  0
   11.4810    5.5390    3.5210 O   0  0  0  0  0  0  0  0  0  0  0  0
    6.6130    1.7260    5.8380 P   0  0  0  0  0  0  0  0  0  0  0  0
    8.4900    0.6560    4.2090 C   0  0  0  0  0  0  0  0  0  0  0  0
    9.2630    5.5680    3.1860 O   0  0  0  0  0  0  0  0  0  0  0  0
    9.0500    7.0190    3.1120 C   0  0  0  0  0  0  0  0  0  0  0  0
    7.6320    1.5700    4.8780 N   0  0  0  0  0  0  0  0  0  0  0  0
    5.2830   -1.9770    1.7390 C   0  0  0  0  0  0  0  0  0  0  0  0
   10.9030    3.5170    4.0470 C   0  0  0  0  0  0  0  0  0  0  0  0
    9.7210    8.8820    2.5860 O   0  0  0  0  0  0  0  0  0  0  0  0
   12.1230    7.5220    3.5140 S   0  0  0  0  0  0  0  0  0  0  0  0
    8.8730    3.8490    4.8570 C   0  0  0  0  0  0  0  0  0  0  0  0
   12.8580    6.1280    3.5330 C   0  0  0  0  0  0  0  0  0  0  0  0
    6.5060    3.1590    6.4710 O   0  0  0  0  0  0  0  0  0  0  0  0
    9.8140    9.6910    0.5550 O   0  0  0  0  0  0  0  0  0  0  0  0
    3.1320    1.3130    3.5370 O   0  0  0  0  0  0  0  0  0  0  0  0
  3 17  2  0
  3 31  1  0
  4  8  2  0
  6 16  1  0
  6 10  1  0
  8 21  1  0
  8 28  2  0
 11  1  1  0
 11 31  1  0
 14  2  1  0
 14 29  1  0
 15 13  1  0
 15 26  1  0
 15 22  1  0
 16 17  1  0
 18  5  1  0
 18  9  1  0
 19 14  1  0
 20 13  1  0
 20 35  1  0
 20  5  1  0
 21 32  1  0
 22 12  2  0
 22 33  1  0
 23  1  1  0
 23 26  1  0
 24  3  1  0
 25 24  1  0
 25  6  1  0
 26 22  1  0
 27 18  1  0
 28 11  2  0
 29  7  1  0
 30 32  1  0
 30  7  1  0
 34 14  2  0
M  END
$$$$

     RDKit          3D

 27 28  0  0  0  0  0  0  0  0999 V2000
   -0.6300    8.4160   -0.0550 C   0  0  0  0  0  0  0  0  0  0  0  0
    3.6640    7.2750   -0.0410 O   0  0  0  0  0  0  0  0  0  0  0  0
   -3.4740    7.7980   -0.4200 O   0  0  0  0  0  0  0  0  0  0  0  0
    0.8500    8.1790    2.0800 C   0  0  0  0  0  0  0  0  0  0  0  0
    3.9160    7.7500    1.8150 C   0  0  0  0  0  0  0  0  0  0  0  0
    8.6110    6.9820    5.0080 C   0  0  0  0  0  0  0  0  0  0  0  0
    6.8830    7.3630    2.8660 N   0  0  0  0  0  0  0  0  0  0  0  0
   -2.8480    7.0510    0.5670 C   0  0  0  0  0  0  0  0  0  0  0  0
    6.0710    9.9040    3.4920 C   0  0  0  0  0  0  0  0  0  0  0  0
    4.8560    6.9780   -0.7640 C   0  0  0  0  0  0  0  0  0  0  0  0
    9.0920    5.7580    3.0370 O   0  0  0  0  0  0  0  0  0  0  0  0
    4.8440   10.4500    3.5940 O   0  0  0  0  0  0  0  0  0  0  0  0
   -3.5810    6.7720    1.6460 O   0  0  0  0  0  0  0  0  0  0  0  0
    6.9910   10.2350    4.1870 O   0  0  0  0  0  0  0  0  0  0  0  0
   -2.6780    8.9060   -0.8610 O   0  0  0  0  0  0  0  0  0  0  0  0
    0.6620    7.7950   -0.4450 C   0  0  0  0  0  0  0  0  0  0  0  0
    1.5260    7.6430    0.7990 C   0  0  0  0  0  0  0  0  0  0  0  0
   -1.5620    8.1070   -1.2650 C   0  0  0  0  0  0  0  0  0  0  0  0
    1.3080    7.9600   -1.7010 C   0  0  0  0  0  0  0  0  0  0  0  0
    1.1450    6.3820    0.6000 O   0  0  0  0  0  0  0  0  0  0  0  0
    6.2920    8.7750    2.4570 C   0  0  0  0  0  0  0  0  0  0  0  0
    8.0890    5.9070    4.0430 C   0  0  0  0  0  0  0  0  0  0  0  0
    5.7230    5.9050    4.0440 O   0  0  0  0  0  0  0  0  0  0  0  0
    4.7760    8.4730    1.9780 C   0  0  0  0  0  0  0  0  0  0  0  0
   -1.4340    7.5210    0.8470 C   0  0  0  0  0  0  0  0  0  0  0  0
    6.7320    6.3940    3.5530 C   0  0  0  0  0  0  0  0  0  0  0  0
    2.9860    7.9250    0.8210 C   0  0  0  0  0  0  0  0  0  0  0  0
  1 18  1  0
  1 25  1  0
  2 27  1  0
  3  8  1  0
  5 24  1  0
  7 26  1  0
  8 25  1  0
  8 13  1  0
  9 12  2  0
  9 14  1  0
 10  2  1  0
 11 22  1  0
 15  3  1  0
 16 19  1  0
 16  1  1  0
 16 20  1  0
 16 17  1  0
 17 27  1  0
 17  4  1  0
 18 15  1  0
 20 17  1  0
 21 24  1  0
 21  7  1  0
 21  9  1  0
 22  6  1  0
 26 22  1  0
 26 23  2  0
 27  5  1  0
M  END
$$$$

     RDKit          3D

  1  0  0  0  0  0  0  0  0  0999 V2000
    6.2440   12.6180   -4.6040 Cl  0  0  0  0  0  0  0  0  0  0  0  0
M  END
$$$$
