
     RDKit          3D

 10 11  0  0  0  0  0  0  0  0999 V2000
    5.1380  -19.5420  -47.5550 C   0  0  0  0  0  0  0  0  0  0  0  0
    4.3590  -20.1070  -46.4530 C   0  0  0  0  0  0  0  0  0  0  0  0
    5.9700  -19.7200  -46.5650 N   0  0  0  0  0  0  0  0  0  0  0  0
    6.7610  -19.5300  -45.5580 N   0  0  0  0  0  0  0  0  0  0  0  0
    6.7020  -19.1230  -47.4670 C   0  0  0  0  0  0  0  0  0  0  0  0
    4.4130  -18.9980  -48.8610 C   0  0  0  0  0  0  0  0  0  0  0  0
    8.0000  -19.0390  -46.8180 N   0  0  0  0  0  0  0  0  0  0  0  0
    3.5340  -19.4020  -48.6700 C   0  0  0  0  0  0  0  0  0  0  0  0
    7.4850  -19.4270  -45.8870 C   0  0  0  0  0  0  0  0  0  0  0  0
    4.7250  -19.1820  -48.6220 C   0  0  0  0  0  0  0  0  0  0  0  0
  1 10  1  0
  1  3  1  0
  1  2  1  0
  3  5  1  0
  3  2  1  0
  3  4  1  0
  5  7  1  0
  6  8  1  0
  6 10  1  0
  7  9  1  0
  9  4  1  0
M  END
$$$$

     RDKit          3D

 19 21  0  0  0  0  0  0  0  0999 V2000
    0.2450  -20.5470  -48.7810 C   0  0  0  0  0  0  0  0  0  0  0  0
    1.4660  -20.0210  -49.0870 C   0  0  0  0  0  0  0  0  0  0  0  0
    3.5280  -19.2490  -48.2410 N   0  0  0  0  0  0  0  0  0  0  0  0
    8.3410  -19.2470  -45.7670 C   0  0  0  0  0  0  0  0  0  0  0  0
    7.8360  -19.1950  -47.0470 C   0  0  0  0  0  0  0  0  0  0  0  0
   10.1160  -19.0880  -44.0670 C   0  0  0  0  0  0  0  0  0  0  0  0
    9.6450  -18.9920  -45.4680 C   0  0  0  0  0  0  0  0  0  0  0  0
    1.9830  -19.8930  -46.6750 C   0  0  0  0  0  0  0  0  0  0  0  0
   -0.0490  -20.8240  -47.4280 C   0  0  0  0  0  0  0  0  0  0  0  0
    4.7480  -19.7460  -48.5810 C   0  0  0  0  0  0  0  0  0  0  0  0
   10.4840  -18.6410  -46.5360 C   0  0  0  0  0  0  0  0  0  0  0  0
    5.5610  -19.5540  -47.4570 N   0  0  0  0  0  0  0  0  0  0  0  0
    5.5450  -19.3240  -46.5320 O   0  0  0  0  0  0  0  0  0  0  0  0
   10.0540  -18.5760  -47.8050 C   0  0  0  0  0  0  0  0  0  0  0  0
    6.4590  -19.3320  -47.2480 C   0  0  0  0  0  0  0  0  0  0  0  0
    2.3380  -19.6780  -48.1070 C   0  0  0  0  0  0  0  0  0  0  0  0
    8.7580  -18.8910  -48.1000 C   0  0  0  0  0  0  0  0  0  0  0  0
    5.3100  -19.7870  -50.2520 S   0  0  0  0  0  0  0  0  0  0  0  0
    0.7330  -20.4330  -46.4260 C   0  0  0  0  0  0  0  0  0  0  0  0
  1  9  1  0
  2  1  2  0
  2 16  1  0
  3 16  1  0
  4  7  1  0
  5  4  2  0
  7  6  1  0
  8 19  1  0
  9 19  2  0
 10  3  1  0
 10 12  1  0
 11  7  2  0
 12 15  1  0
 12 13  1  0
 14 11  1  0
 15  5  1  0
 15 13  1  0
 16  8  2  0
 17 14  2  0
 17  5  1  0
 18 10  2  0
M  END
$$$$

     RDKit          3D

 11 12  0  0  0  0  0  0  0  0999 V2000
    5.3850  -19.4160  -47.0350 C   0  0  0  0  0  0  0  0  0  0  0  0
    3.8190  -19.3480  -48.7110 C   0  0  0  0  0  0  0  0  0  0  0  0
    6.3680  -19.0620  -47.8770 N   0  0  0  0  0  0  0  0  0  0  0  0
    4.0820  -19.9820  -45.3880 N   0  0  0  0  0  0  0  0  0  0  0  0
    5.3380  -19.5960  -45.7890 C   0  0  0  0  0  0  0  0  0  0  0  0
    3.3570  -20.0320  -46.4700 N   0  0  0  0  0  0  0  0  0  0  0  0
    4.7250  -18.7620  -49.5220 C   0  0  0  0  0  0  0  0  0  0  0  0
    6.5140  -19.5850  -45.0220 N   0  0  0  0  0  0  0  0  0  0  0  0
    2.4960  -19.6130  -49.0150 N   0  0  0  0  0  0  0  0  0  0  0  0
    4.0870  -19.6660  -47.3790 C   0  0  0  0  0  0  0  0  0  0  0  0
    6.0110  -18.7570  -49.1140 C   0  0  0  0  0  0  0  0  0  0  0  0
  1  5  1  0
  2  9  1  0
  2 10  1  0
  3  1  2  0
  5  4  2  0
  5  8  1  0
  6  4  1  0
  7 11  2  0
  7  2  1  0
 10  1  1  0
 10  6  2  0
 11  3  1  0
M  END
$$$$

     RDKit          3D

 18 20  0  0  0  0  0  0  0  0999 V2000
    3.6990  -19.2860  -51.5110 C   0  0  0  0  0  0  0  0  0  0  0  0
    3.1700  -19.9940  -47.1460 C   0  0  0  0  0  0  0  0  0  0  0  0
    3.3500  -20.2530  -45.8420 N   0  0  0  0  0  0  0  0  0  0  0  0
    5.2870  -19.7850  -46.7810 C   0  0  0  0  0  0  0  0  0  0  0  0
    7.4380  -19.2740  -45.3170 C   0  0  0  0  0  0  0  0  0  0  0  0
    8.7450  -19.0170  -45.6010 C   0  0  0  0  0  0  0  0  0  0  0  0
    3.2490  -19.6330  -50.2850 C   0  0  0  0  0  0  0  0  0  0  0  0
    9.7810  -19.2160  -43.4150 O   0  0  0  0  0  0  0  0  0  0  0  0
    4.9900  -18.7480  -51.3420 N   0  0  0  0  0  0  0  0  0  0  0  0
    9.9040  -18.8250  -44.5900 C   0  0  0  0  0  0  0  0  0  0  0  0
   10.8410  -18.2390  -44.9390 O   0  0  0  0  0  0  0  0  0  0  0  0
    4.3480  -19.6240  -47.7760 C   0  0  0  0  0  0  0  0  0  0  0  0
    8.8910  -19.1180  -46.9290 N   0  0  0  0  0  0  0  0  0  0  0  0
    4.7170  -20.1300  -45.5770 N   0  0  0  0  0  0  0  0  0  0  0  0
    6.7130  -19.4310  -46.5060 C   0  0  0  0  0  0  0  0  0  0  0  0
    7.5850  -19.3680  -47.4880 O   0  0  0  0  0  0  0  0  0  0  0  0
    4.2330  -19.3380  -49.2970 C   0  0  0  0  0  0  0  0  0  0  0  0
    5.3130  -18.8010  -50.0100 C   0  0  0  0  0  0  0  0  0  0  0  0
  1  9  2  0
  1  7  1  0
  2  3  2  0
  3 14  1  0
  4 15  1  0
  4 14  2  0
  6  5  1  0
  6 10  1  0
  7 17  1  0
  9 18  1  0
 10  8  1  0
 11 10  2  0
 12 17  1  0
 12  2  1  0
 12  4  1  0
 13  6  2  0
 15  5  2  0
 16 13  1  0
 16 15  1  0
 18 17  2  0
M  END
$$$$

     RDKit          3D

  7  7  0  0  0  0  0  0  0  0999 V2000
    6.4490  -19.5700  -46.2660 C   0  0  0  0  0  0  0  0  0  0  0  0
    4.2910  -19.7430  -47.6760 C   0  0  0  0  0  0  0  0  0  0  0  0
    4.1900  -20.0230  -46.3890 C   0  0  0  0  0  0  0  0  0  0  0  0
    6.5010  -19.2670  -47.7240 N   0  0  0  0  0  0  0  0  0  0  0  0
    5.3500  -19.2040  -48.3300 C   0  0  0  0  0  0  0  0  0  0  0  0
    5.3420  -19.9600  -45.6520 N   0  0  0  0  0  0  0  0  0  0  0  0
    7.4380  -19.3940  -45.5100 O   0  0  0  0  0  0  0  0  0  0  0  0
  1  6  2  0
  1  7  2  0
  2  3  2  0
  3  6  1  0
  4  1  2  0
  5  4  1  0
  5  2  1  0
M  END
$$$$

     RDKit          3D

 15 16  0  0  0  0  0  0  0  0999 V2000
    5.0590  -19.0920  -49.1820 C   0  0  0  0  0  0  0  0  0  0  0  0
    8.5950  -19.2200  -45.3470 C   0  0  0  0  0  0  0  0  0  0  0  0
    7.1520  -19.3160  -47.3430 C   0  0  0  0  0  0  0  0  0  0  0  0
    4.8210  -20.0040  -46.9150 N   0  0  0  0  0  0  0  0  0  0  0  0
    8.2680  -19.1240  -48.1750 C   0  0  0  0  0  0  0  0  0  0  0  0
    5.5600  -18.6020  -50.2670 O   0  0  0  0  0  0  0  0  0  0  0  0
    3.4700  -19.9820  -47.0770 C   0  0  0  0  0  0  0  0  0  0  0  0
    5.7030  -19.5010  -47.8100 C   0  0  0  0  0  0  0  0  0  0  0  0
    3.5590  -19.3040  -49.2850 C   0  0  0  0  0  0  0  0  0  0  0  0
    2.8100  -19.7200  -48.2150 N   0  0  0  0  0  0  0  0  0  0  0  0
    9.5750  -19.0450  -47.6100 C   0  0  0  0  0  0  0  0  0  0  0  0
    2.9230  -19.0740  -50.6130 C   0  0  0  0  0  0  0  0  0  0  0  0
    9.7490  -19.0730  -46.2160 C   0  0  0  0  0  0  0  0  0  0  0  0
   10.9590  -18.9580  -45.6360 F   0  0  0  0  0  0  0  0  0  0  0  0
    7.3400  -19.3730  -45.9310 C   0  0  0  0  0  0  0  0  0  0  0  0
  1  6  1  0
  1  8  1  0
  3 15  2  0
  5 11  2  0
  5  3  1  0
  7  4  1  0
  8  3  1  0
  8  4  2  0
  9  1  1  0
  9 10  2  0
 10  7  1  0
 11 13  1  0
 12  9  1  0
 13 14  1  0
 13  2  2  0
 15  2  1  0
M  END
$$$$

     RDKit          3D

 10 11  0  0  0  0  0  0  0  0999 V2000
    6.5450  -19.3940  -50.2940 O   0  0  0  0  0  0  0  0  0  0  0  0
    5.3490  -19.3600  -49.6720 C   0  0  0  0  0  0  0  0  0  0  0  0
    5.0800  -19.7390  -48.5000 C   0  0  0  0  0  0  0  0  0  0  0  0
    6.0740  -20.2560  -47.5690 C   0  0  0  0  0  0  0  0  0  0  0  0
    3.5180  -19.8220  -46.7570 N   0  0  0  0  0  0  0  0  0  0  0  0
    3.1930  -19.0230  -49.0240 N   0  0  0  0  0  0  0  0  0  0  0  0
    5.6470  -20.4960  -46.3450 C   0  0  0  0  0  0  0  0  0  0  0  0
    4.1230  -18.9560  -50.0960 C   0  0  0  0  0  0  0  0  0  0  0  0
    4.3780  -20.3250  -45.9600 N   0  0  0  0  0  0  0  0  0  0  0  0
    3.9360  -19.5590  -47.9580 C   0  0  0  0  0  0  0  0  0  0  0  0
  1  2  1  0
  2  3  2  0
  3 10  1  0
  3  4  1  0
  4  7  2  0
  5  9  1  0
  6 10  2  0
  7  9  1  0
  8  2  1  0
  8  6  1  0
 10  5  2  0
M  END
$$$$

     RDKit          3D

 12 13  0  0  0  0  0  0  0  0999 V2000
    6.2220  -19.5560  -47.3930 C   0  0  0  0  0  0  0  0  0  0  0  0
    8.4170  -19.0990  -46.0280 C   0  0  0  0  0  0  0  0  0  0  0  0
    9.1080  -18.6640  -47.0410 O   0  0  0  0  0  0  0  0  0  0  0  0
    6.5500  -19.5540  -48.7880 C   0  0  0  0  0  0  0  0  0  0  0  0
    9.0670  -19.3970  -44.6840 C   0  0  0  0  0  0  0  0  0  0  0  0
    7.0010  -19.4210  -46.2030 C   0  0  0  0  0  0  0  0  0  0  0  0
    4.8380  -19.7590  -45.6970 N   0  0  0  0  0  0  0  0  0  0  0  0
    6.0870  -19.6970  -45.2330 N   0  0  0  0  0  0  0  0  0  0  0  0
    3.9250  -19.6700  -47.9620 N   0  0  0  0  0  0  0  0  0  0  0  0
    4.1030  -19.7020  -49.1060 N   0  0  0  0  0  0  0  0  0  0  0  0
    5.4390  -19.7160  -49.6320 C   0  0  0  0  0  0  0  0  0  0  0  0
    4.9050  -19.6100  -47.0740 C   0  0  0  0  0  0  0  0  0  0  0  0
  1 12  1  0
  1  6  1  0
  2  5  1  0
  3  2  1  0
  4  1  2  0
  6  2  1  0
  6  8  2  0
  7  8  1  0
  9 12  2  0
 10  9  1  0
 11 10  2  0
 11  4  1  0
 12  7  2  0
M  END
$$$$

     RDKit          3D

 12 13  0  0  0  0  0  0  0  0999 V2000
    4.2920  -19.5070  -47.6200 C   0  0  0  0  0  0  0  0  0  0  0  0
    5.1960  -19.2300  -48.6970 C   0  0  0  0  0  0  0  0  0  0  0  0
    1.7920  -19.9040  -47.3570 C   0  0  0  0  0  0  0  0  0  0  0  0
    2.8900  -19.5360  -48.0760 C   0  0  0  0  0  0  0  0  0  0  0  0
    4.7630  -19.6030  -46.3780 C   0  0  0  0  0  0  0  0  0  0  0  0
    6.1770  -19.4250  -46.1670 C   0  0  0  0  0  0  0  0  0  0  0  0
    1.0780  -19.3600  -49.3940 N   0  0  0  0  0  0  0  0  0  0  0  0
    6.9970  -19.1530  -47.1620 N   0  0  0  0  0  0  0  0  0  0  0  0
    6.5720  -19.0330  -48.4540 C   0  0  0  0  0  0  0  0  0  0  0  0
    0.7080  -19.7790  -48.1210 C   0  0  0  0  0  0  0  0  0  0  0  0
    6.7770  -19.5320  -44.9860 N   0  0  0  0  0  0  0  0  0  0  0  0
    2.3590  -19.1930  -49.3440 C   0  0  0  0  0  0  0  0  0  0  0  0
  1  5  2  0
  2  9  2  0
  2  1  1  0
  4  1  1  0
  4  3  1  0
  5  6  1  0
  6 11  1  0
  7 12  2  0
  7 10  1  0
  8  6  2  0
  9  8  1  0
 10  3  2  0
 12  4  1  0
M  END
$$$$

     RDKit          3D

 21 24  0  0  0  0  0  0  0  0999 V2000
    0.8920  -20.5490  -48.1060 C   0  0  0  0  0  0  0  0  0  0  0  0
   11.4730  -17.7260  -45.0140 C   0  0  0  0  0  0  0  0  0  0  0  0
    7.8440  -19.3590  -46.8170 C   0  0  0  0  0  0  0  0  0  0  0  0
    5.4060  -19.6160  -47.1630 C   0  0  0  0  0  0  0  0  0  0  0  0
    2.9800  -20.0890  -48.5190 C   0  0  0  0  0  0  0  0  0  0  0  0
    1.5000  -20.3540  -46.4830 S   0  0  0  0  0  0  0  0  0  0  0  0
    3.0240  -20.0730  -47.1200 C   0  0  0  0  0  0  0  0  0  0  0  0
    7.1720  -19.5580  -49.2010 S   0  0  0  0  0  0  0  0  0  0  0  0
    4.2250  -19.8040  -46.3500 C   0  0  0  0  0  0  0  0  0  0  0  0
    9.8970  -19.0920  -48.4340 C   0  0  0  0  0  0  0  0  0  0  0  0
   10.4520  -18.4390  -45.9210 C   0  0  0  0  0  0  0  0  0  0  0  0
    8.8830  -19.1160  -45.4550 S   0  0  0  0  0  0  0  0  0  0  0  0
   -0.6110  -21.1260  -48.0530 C   0  0  0  0  0  0  0  0  0  0  0  0
    6.5520  -19.5690  -46.4050 N   0  0  0  0  0  0  0  0  0  0  0  0
   12.3310  -16.8150  -45.8860 N   0  0  0  0  0  0  0  0  0  0  0  0
    5.5970  -19.6190  -48.4850 C   0  0  0  0  0  0  0  0  0  0  0  0
    4.1120  -19.6540  -45.1440 O   0  0  0  0  0  0  0  0  0  0  0  0
    4.3300  -19.7730  -49.5570 S   0  0  0  0  0  0  0  0  0  0  0  0
    8.4180  -19.3380  -48.1120 C   0  0  0  0  0  0  0  0  0  0  0  0
   10.9500  -18.8820  -47.3050 C   0  0  0  0  0  0  0  0  0  0  0  0
    1.7650  -20.3400  -49.1160 N   0  0  0  0  0  0  0  0  0  0  0  0
  1 13  1  0
  1  6  1  0
  3 14  2  0
  3 12  1  0
  4 14  2  0
  4  9  1  0
  7  5  1  0
  7  6  1  0
  7  9  1  0
  8 16  1  0
  8 19  1  0
  9 17  2  0
 10 19  2  0
 10 20  1  0
 11 12  1  0
 11  2  1  0
 15  2  1  0
 16 18  1  0
 16  4  1  0
 18  5  1  0
 19  3  1  0
 20 11  1  0
 21  5  2  0
 21  1  2  0
M  END
$$$$

     RDKit          3D

 11 11  0  0  0  0  0  0  0  0999 V2000
    4.5700  -19.2800  -48.3800 C   0  0  0  0  0  0  0  0  0  0  0  0
    6.0220  -19.6570  -46.5390 C   0  0  0  0  0  0  0  0  0  0  0  0
    1.9600  -19.6190  -47.9400 Cl  0  0  0  0  0  0  0  0  0  0  0  0
    5.0210  -19.9140  -45.6490 N   0  0  0  0  0  0  0  0  0  0  0  0
    8.9110  -19.3910  -44.6650 C   0  0  0  0  0  0  0  0  0  0  0  0
    8.2630  -18.9610  -45.9000 C   0  0  0  0  0  0  0  0  0  0  0  0
    3.9000  -19.9100  -46.1820 N   0  0  0  0  0  0  0  0  0  0  0  0
    9.2430  -18.7920  -47.0450 C   0  0  0  0  0  0  0  0  0  0  0  0
    5.9170  -19.2180  -47.9380 C   0  0  0  0  0  0  0  0  0  0  0  0
    3.5680  -19.5950  -47.4640 C   0  0  0  0  0  0  0  0  0  0  0  0
    7.2320  -19.8580  -46.0860 N   0  0  0  0  0  0  0  0  0  0  0  0
  1  9  2  0
  1 10  1  0
  2 11  1  0
  2  4  2  0
  3 10  1  0
  6  5  1  0
  7  4  1  0
  8  6  1  0
  9  2  1  0
 10  7  2  0
 11  6  1  0
M  END
$$$$

     RDKit          3D

  9  9  0  0  0  0  0  0  0  0999 V2000
    4.8410  -19.1500  -48.1420 C   0  0  0  0  0  0  0  0  0  0  0  0
    9.1360  -19.1970  -45.7500 S   0  0  0  0  0  0  0  0  0  0  0  0
    5.3270  -19.5990  -46.1820 C   0  0  0  0  0  0  0  0  0  0  0  0
    5.6800  -19.1580  -47.4050 C   0  0  0  0  0  0  0  0  0  0  0  0
    6.4380  -19.7070  -45.4930 N   0  0  0  0  0  0  0  0  0  0  0  0
    4.0010  -19.9170  -45.9180 S   0  0  0  0  0  0  0  0  0  0  0  0
    4.0210  -19.0140  -49.0380 N   0  0  0  0  0  0  0  0  0  0  0  0
    7.4240  -19.3030  -46.2900 C   0  0  0  0  0  0  0  0  0  0  0  0
    6.9960  -19.0150  -47.5510 N   0  0  0  0  0  0  0  0  0  0  0  0
  1  4  1  0
  3  6  2  0
  3  5  2  0
  4  3  1  0
  7  1  3  0
  8  2  2  0
  8  5  2  0
  9  4  2  0
  9  8  2  0
M  END
$$$$

     RDKit          3D

 23 25  0  0  0  0  0  0  0  0999 V2000
   10.9250  -19.0520  -45.5560 C   0  0  0  0  0  0  0  0  0  0  0  0
    5.3790  -19.9460  -46.1790 C   0  0  0  0  0  0  0  0  0  0  0  0
    4.1210  -19.4100  -48.0590 C   0  0  0  0  0  0  0  0  0  0  0  0
   12.1900  -18.8340  -45.4720 C   0  0  0  0  0  0  0  0  0  0  0  0
   12.7860  -18.8470  -44.0480 C   0  0  0  0  0  0  0  0  0  0  0  0
    0.6780  -20.4590  -46.0070 N   0  0  0  0  0  0  0  0  0  0  0  0
    4.3500  -20.3240  -45.4150 N   0  0  0  0  0  0  0  0  0  0  0  0
    5.3250  -19.4710  -47.4170 C   0  0  0  0  0  0  0  0  0  0  0  0
    2.9780  -19.8820  -47.4360 C   0  0  0  0  0  0  0  0  0  0  0  0
    8.9500  -19.2750  -47.1090 C   0  0  0  0  0  0  0  0  0  0  0  0
    3.0970  -20.1670  -46.0800 C   0  0  0  0  0  0  0  0  0  0  0  0
    7.7750  -19.1010  -47.7110 C   0  0  0  0  0  0  0  0  0  0  0  0
    9.9960  -18.9260  -44.4430 C   0  0  0  0  0  0  0  0  0  0  0  0
    0.4510  -20.2350  -47.3010 C   0  0  0  0  0  0  0  0  0  0  0  0
   11.8540  -18.1830  -43.0680 C   0  0  0  0  0  0  0  0  0  0  0  0
   -1.8990  -21.6190  -47.2470 C   0  0  0  0  0  0  0  0  0  0  0  0
    1.8690  -20.4870  -45.4640 C   0  0  0  0  0  0  0  0  0  0  0  0
   10.3030  -19.4280  -46.8640 C   0  0  0  0  0  0  0  0  0  0  0  0
    1.5970  -20.1450  -47.9870 C   0  0  0  0  0  0  0  0  0  0  0  0
   10.5890  -18.9030  -43.0910 N   0  0  0  0  0  0  0  0  0  0  0  0
    6.6030  -19.0800  -48.1100 C   0  0  0  0  0  0  0  0  0  0  0  0
   -0.3790  -21.4380  -47.5270 C   0  0  0  0  0  0  0  0  0  0  0  0
   12.2590  -17.6230  -42.0680 O   0  0  0  0  0  0  0  0  0  0  0  0
  1 18  1  0
  1  4  1  0
  1 13  1  0
  2  7  1  0
  3  9  2  0
  3  8  1  0
  4  5  1  0
  5 15  1  0
  6 17  1  0
  8  2  1  0
  9 11  1  0
 10 18  1  0
 11 17  1  0
 11  7  2  0
 12 10  3  0
 13 20  1  0
 14  6  2  0
 15 23  2  0
 19  9  1  0
 19 14  1  0
 20 15  2  0
 21 12  1  0
 21  8  2  3
 22 14  1  0
 22 16  1  0
M  END
$$$$

     RDKit          3D

 21 24  0  0  0  0  0  0  0  0999 V2000
   11.6840  -19.4240  -44.8220 N   0  0  0  0  0  0  0  0  0  0  0  0
    9.0750  -19.3540  -45.4730 C   0  0  0  0  0  0  0  0  0  0  0  0
    1.3500  -19.5720  -49.3650 C   0  0  0  0  0  0  0  0  0  0  0  0
    5.2560  -20.0190  -45.7670 N   0  0  0  0  0  0  0  0  0  0  0  0
    2.5220  -19.8260  -46.6410 S   0  0  0  0  0  0  0  0  0  0  0  0
    3.7450  -19.6470  -48.8470 C   0  0  0  0  0  0  0  0  0  0  0  0
    3.1520  -19.7070  -52.5460 O   0  0  0  0  0  0  0  0  0  0  0  0
   12.9590  -20.0620  -44.6600 C   0  0  0  0  0  0  0  0  0  0  0  0
    2.4750  -19.6610  -48.3760 C   0  0  0  0  0  0  0  0  0  0  0  0
   11.4200  -18.9020  -46.0650 N   0  0  0  0  0  0  0  0  0  0  0  0
    5.9160  -19.4830  -47.8630 C   0  0  0  0  0  0  0  0  0  0  0  0
    4.1950  -19.8110  -46.6140 C   0  0  0  0  0  0  0  0  0  0  0  0
    6.3930  -19.6490  -46.4910 C   0  0  0  0  0  0  0  0  0  0  0  0
    2.8790  -19.6090  -51.1170 C   0  0  0  0  0  0  0  0  0  0  0  0
    4.0470  -19.5960  -50.2510 C   0  0  0  0  0  0  0  0  0  0  0  0
   10.8620  -19.0440  -43.7490 C   0  0  0  0  0  0  0  0  0  0  0  0
    1.5540  -19.5640  -50.6390 C   0  0  0  0  0  0  0  0  0  0  0  0
    9.4950  -19.0390  -44.1050 C   0  0  0  0  0  0  0  0  0  0  0  0
   10.2500  -19.6530  -46.1960 C   0  0  0  0  0  0  0  0  0  0  0  0
    4.6450  -19.6590  -47.9030 N   0  0  0  0  0  0  0  0  0  0  0  0
    7.9250  -19.3180  -46.2910 S   0  0  0  0  0  0  0  0  0  0  0  0
  1  8  1  0
  1 16  1  0
  2 18  2  0
  3  9  1  0
  5 12  1  0
  6  9  2  0
  6 20  1  0
  7 14  1  0
  9  5  1  0
 10  1  1  0
 11 13  1  0
 12  4  2  0
 13 21  1  0
 13  4  2  0
 14 17  1  0
 14 15  2  0
 15  6  1  0
 17  3  2  0
 18 16  1  0
 19 10  1  0
 19  2  1  0
 20 11  1  0
 20 12  1  0
 21  2  1  0
M  END
$$$$

     RDKit          3D

 13 14  0  0  0  0  0  0  0  0999 V2000
    9.9230  -19.5270  -45.4030 C   0  0  0  0  0  0  0  0  0  0  0  0
   11.2800  -19.8760  -45.3710 C   0  0  0  0  0  0  0  0  0  0  0  0
    5.5140  -19.4140  -46.2560 C   0  0  0  0  0  0  0  0  0  0  0  0
   12.1720  -19.8470  -44.4340 C   0  0  0  0  0  0  0  0  0  0  0  0
    9.1090  -19.4010  -46.3030 C   0  0  0  0  0  0  0  0  0  0  0  0
    4.4910  -19.7290  -45.5850 N   0  0  0  0  0  0  0  0  0  0  0  0
    7.8690  -19.5210  -46.8160 N   0  0  0  0  0  0  0  0  0  0  0  0
   11.1300  -18.7360  -43.2810 C   0  0  0  0  0  0  0  0  0  0  0  0
    3.5270  -20.0630  -45.3920 O   0  0  0  0  0  0  0  0  0  0  0  0
    9.8040  -18.9870  -44.1260 C   0  0  0  0  0  0  0  0  0  0  0  0
    6.9930  -19.4850  -45.7920 N   0  0  0  0  0  0  0  0  0  0  0  0
   11.1970  -21.2380  -44.6180 O   0  0  0  0  0  0  0  0  0  0  0  0
   12.7270  -20.1390  -43.3470 C   0  0  0  0  0  0  0  0  0  0  0  0
  1  5  1  0
  1  2  1  0
  1 10  1  0
  2 12  1  0
  2  4  1  0
  3 11  1  0
  3  6  1  0
  4 13  1  0
  4  8  1  0
  6  9  1  0
  7  5  1  0
  7 11  1  0
 10  8  1  0
 12  4  1  0
M  END
$$$$

     RDKit          3D

 21 24  0  0  0  0  0  0  0  0999 V2000
    2.7680  -19.9220  -47.2480 C   0  0  0  0  0  0  0  0  0  0  0  0
   11.6670  -17.7100  -47.6750 C   0  0  0  0  0  0  0  0  0  0  0  0
   10.8180  -18.9050  -47.5250 C   0  0  0  0  0  0  0  0  0  0  0  0
    6.0430  -18.7910  -49.7420 C   0  0  0  0  0  0  0  0  0  0  0  0
    4.7260  -18.7620  -49.9670 C   0  0  0  0  0  0  0  0  0  0  0  0
    7.4260  -19.4230  -45.6920 C   0  0  0  0  0  0  0  0  0  0  0  0
    0.0210  -20.7370  -47.1320 C   0  0  0  0  0  0  0  0  0  0  0  0
    0.8310  -20.7720  -45.9880 C   0  0  0  0  0  0  0  0  0  0  0  0
    2.5290  -19.3770  -49.4930 N   0  0  0  0  0  0  0  0  0  0  0  0
    1.8920  -19.8070  -48.4630 C   0  0  0  0  0  0  0  0  0  0  0  0
    9.8430  -18.8790  -46.4020 C   0  0  0  0  0  0  0  0  0  0  0  0
    8.3590  -19.1020  -46.7070 C   0  0  0  0  0  0  0  0  0  0  0  0
    3.7480  -19.1740  -48.9890 N   0  0  0  0  0  0  0  0  0  0  0  0
    5.4790  -19.4020  -47.3030 C   0  0  0  0  0  0  0  0  0  0  0  0
    0.5540  -20.2100  -48.3630 C   0  0  0  0  0  0  0  0  0  0  0  0
    7.8920  -18.9880  -48.1310 C   0  0  0  0  0  0  0  0  0  0  0  0
    6.4250  -19.0640  -48.3710 C   0  0  0  0  0  0  0  0  0  0  0  0
    2.1110  -20.3840  -46.0420 C   0  0  0  0  0  0  0  0  0  0  0  0
    8.6340  -18.7980  -49.0700 O   0  0  0  0  0  0  0  0  0  0  0  0
    6.0760  -19.6840  -45.9830 C   0  0  0  0  0  0  0  0  0  0  0  0
    4.0560  -19.4960  -47.6630 C   0  0  0  0  0  0  0  0  0  0  0  0
  1 18  1  0
  2  3  1  0
  3 11  1  0
  4 17  2  0
  5  4  1  0
  5 13  1  0
  7  8  1  0
  9 13  1  0
  9 10  2  0
 10 15  1  0
 10  1  1  0
 12 11  1  0
 12  6  1  0
 13 21  1  0
 14 20  1  0
 15  7  2  0
 16 12  1  0
 17 16  1  0
 17 14  1  0
 18  8  2  0
 19 16  2  0
 20  6  2  0
 21 14  2  0
 21  1  1  0
M  END
$$$$

     RDKit          3D

 12 14  0  0  0  0  0  0  0  0999 V2000
    4.2710  -19.6110  -47.1330 N   0  0  0  0  0  0  0  0  0  0  0  0
    5.4090  -18.9650  -50.1960 C   0  0  0  0  0  0  0  0  0  0  0  0
    4.7840  -19.2330  -48.4140 C   0  0  0  0  0  0  0  0  0  0  0  0
    4.2490  -19.0690  -49.4420 N   0  0  0  0  0  0  0  0  0  0  0  0
    6.0180  -19.1250  -48.1950 C   0  0  0  0  0  0  0  0  0  0  0  0
    8.6950  -19.2000  -45.4720 C   0  0  0  0  0  0  0  0  0  0  0  0
    6.4270  -19.3430  -46.8160 C   0  0  0  0  0  0  0  0  0  0  0  0
    8.9670  -18.8650  -46.9510 C   0  0  0  0  0  0  0  0  0  0  0  0
    7.6460  -19.1210  -46.4450 C   0  0  0  0  0  0  0  0  0  0  0  0
    6.4500  -18.8030  -49.4870 C   0  0  0  0  0  0  0  0  0  0  0  0
    5.2860  -19.7780  -46.1840 C   0  0  0  0  0  0  0  0  0  0  0  0
    4.8590  -20.1580  -45.0380 O   0  0  0  0  0  0  0  0  0  0  0  0
  1 11  2  0
  2 10  1  0
  2  4  1  0
  3  5  1  0
  3  1  2  0
  4  3  2  0
  5  7  2  0
  7  9  1  0
  7 11  1  0
  8  9  1  0
  8  6  1  0
  9  6  1  0
 10  5  1  0
 11 12  2  0
M  END
$$$$

     RDKit          3D

 18 19  0  0  0  0  0  0  0  0999 V2000
    6.1440  -19.3870  -46.3010 C   0  0  0  0  0  0  0  0  0  0  0  0
    1.0180  -19.9130  -48.2340 O   0  0  0  0  0  0  0  0  0  0  0  0
    2.3960  -19.6380  -46.4950 N   0  0  0  0  0  0  0  0  0  0  0  0
    3.6330  -19.5110  -45.9730 C   0  0  0  0  0  0  0  0  0  0  0  0
    4.8460  -19.4660  -46.8330 C   0  0  0  0  0  0  0  0  0  0  0  0
    4.6290  -19.4960  -48.2410 C   0  0  0  0  0  0  0  0  0  0  0  0
    8.6370  -19.5760  -46.8590 C   0  0  0  0  0  0  0  0  0  0  0  0
    3.0390  -19.1890  -50.2450 C   0  0  0  0  0  0  0  0  0  0  0  0
    9.0040  -19.4360  -45.4750 C   0  0  0  0  0  0  0  0  0  0  0  0
    7.2450  -19.5420  -47.1490 C   0  0  0  0  0  0  0  0  0  0  0  0
    9.4850  -19.2530  -44.3130 C   0  0  0  0  0  0  0  0  0  0  0  0
    4.8120  -18.8800  -51.9220 C   0  0  0  0  0  0  0  0  0  0  0  0
    3.7340  -19.3300  -44.8010 O   0  0  0  0  0  0  0  0  0  0  0  0
    6.9940  -19.7700  -48.6550 C   0  0  0  0  0  0  0  0  0  0  0  0
    2.1740  -19.7170  -47.8660 C   0  0  0  0  0  0  0  0  0  0  0  0
    3.2820  -19.4810  -48.7770 C   0  0  0  0  0  0  0  0  0  0  0  0
    3.8880  -19.9080  -51.2340 C   0  0  0  0  0  0  0  0  0  0  0  0
    5.6880  -19.4920  -49.0540 O   0  0  0  0  0  0  0  0  0  0  0  0
  2 15  2  0
  3  4  2  0
  4 13  2  0
  5  1  2  0
  5  4  1  0
  6  5  1  0
  7  9  1  0
  8 16  1  0
  9 11  3  0
 10  7  1  0
 10  1  1  0
 12 17  1  0
 14 10  2  0
 15  3  2  0
 16  6  2  0
 16 15  1  0
 17  8  1  0
 18 14  1  0
 18  6  1  0
M  END
$$$$

     RDKit          3D

 13 14  0  0  0  0  0  0  0  0999 V2000
    5.7680  -19.4140  -46.6710 C   0  0  0  0  0  0  0  0  0  0  0  0
   -0.2930  -20.4190  -47.5330 O   0  0  0  0  0  0  0  0  0  0  0  0
    3.7520  -19.5400  -47.8900 C   0  0  0  0  0  0  0  0  0  0  0  0
    1.5340  -19.7650  -49.1320 C   0  0  0  0  0  0  0  0  0  0  0  0
    3.0090  -19.5130  -49.2730 C   0  0  0  0  0  0  0  0  0  0  0  0
    5.0700  -19.7620  -45.5720 C   0  0  0  0  0  0  0  0  0  0  0  0
   -0.6010  -21.8130  -47.4670 C   0  0  0  0  0  0  0  0  0  0  0  0
    5.1380  -19.3060  -47.9810 C   0  0  0  0  0  0  0  0  0  0  0  0
    1.7850  -19.8610  -46.8450 N   0  0  0  0  0  0  0  0  0  0  0  0
    3.6880  -19.9640  -45.5060 N   0  0  0  0  0  0  0  0  0  0  0  0
    3.0360  -19.8370  -46.7130 C   0  0  0  0  0  0  0  0  0  0  0  0
    0.5070  -19.9390  -50.5450 Cl  0  0  0  0  0  0  0  0  0  0  0  0
    0.9390  -19.9980  -47.8610 C   0  0  0  0  0  0  0  0  0  0  0  0
  1  6  2  0
  2  7  1  0
  3 11  1  0
  4 13  1  0
  5  4  2  0
  5  3  1  0
  6 10  1  0
  8  3  2  0
  8  1  1  0
  9 11  2  0
 11 10  2  0
 12  4  1  0
 13  2  1  0
 13  9  2  0
M  END
$$$$

     RDKit          3D

 10 10  0  0  0  0  0  0  0  0999 V2000
    7.6760  -19.1010  -47.7430 C   0  0  0  0  0  0  0  0  0  0  0  0
    5.4480  -19.3740  -46.8660 C   0  0  0  0  0  0  0  0  0  0  0  0
    4.7460  -19.6040  -45.8180 O   0  0  0  0  0  0  0  0  0  0  0  0
    7.1030  -19.0850  -49.0620 C   0  0  0  0  0  0  0  0  0  0  0  0
    4.8980  -19.3540  -48.1400 C   0  0  0  0  0  0  0  0  0  0  0  0
    5.7670  -19.2280  -49.2190 C   0  0  0  0  0  0  0  0  0  0  0  0
    7.1750  -19.3040  -45.3090 N   0  0  0  0  0  0  0  0  0  0  0  0
    5.1160  -19.3450  -50.5440 C   0  0  0  0  0  0  0  0  0  0  0  0
    3.6820  -19.7070  -50.5050 N   0  0  0  0  0  0  0  0  0  0  0  0
    6.8130  -19.2380  -46.6460 C   0  0  0  0  0  0  0  0  0  0  0  0
  1 10  1  0
  2 10  2  0
  2  3  1  0
  4  1  2  0
  5  2  1  0
  6  4  1  0
  6  5  2  0
  8  9  1  0
  8  6  1  0
 10  7  1  0
M  END
$$$$
