
     RDKit          3D

  9  9  0  0  0  0  0  0  0  0999 V2000
  -17.3000  -23.5380   -7.3510 C   0  0  0  0  0  0  0  0  0  0  0  0
  -17.9380  -21.5750   -5.8600 C   0  0  0  0  0  0  0  0  0  0  0  0
  -18.4270  -23.4680   -7.5370 C   0  0  0  0  0  0  0  0  0  0  0  0
  -19.4230  -21.7930   -6.4730 C   0  0  0  0  0  0  0  0  0  0  0  0
  -16.3110  -24.5400   -7.6800 C   0  0  0  0  0  0  0  0  0  0  0  0
  -14.9460  -24.4810   -7.4180 N   0  0  0  0  0  0  0  0  0  0  0  0
  -16.8100  -25.5150   -8.1730 N   0  0  0  0  0  0  0  0  0  0  0  0
  -17.1110  -22.3120   -6.5330 C   0  0  0  0  0  0  0  0  0  0  0  0
  -19.4930  -22.8220   -7.2080 C   0  0  0  0  0  0  0  0  0  0  0  0
  1  8  1  0
  3  1  2  0
  3  9  1  0
  4  2  1  0
  5  6  1  0
  5  1  1  0
  7  5  2  0
  8  2  1  0
  9  4  1  0
M  END
$$$$

     RDKit          3D

 51 56  0  0  0  0  0  0  0  0999 V2000
  -18.2030  -21.7200   -5.3660 C   0  0  0  0  0  0  0  0  0  0  0  0
  -12.6400  -28.4270   -7.4740 C   0  0  0  0  0  0  0  0  0  0  0  0
  -25.3050  -18.7460   -6.7740 C   0  0  0  0  0  0  0  0  0  0  0  0
  -21.7640  -18.8390   -6.5160 O   0  0  0  0  0  0  0  0  0  0  0  0
  -16.0160  -24.4190   -8.7090 C   0  0  0  0  0  0  0  0  0  0  0  0
  -17.3540  -22.1980   -6.4910 C   0  0  0  0  0  0  0  0  0  0  0  0
  -20.4520  -21.5820   -7.6960 N   0  0  0  0  0  0  0  0  0  0  0  0
  -18.8800  -26.5230   -9.6450 N   0  0  0  0  0  0  0  0  0  0  0  0
  -20.9480  -23.6910   -7.2300 O   0  0  0  0  0  0  0  0  0  0  0  0
   -8.8490  -27.5900   -7.0010 C   0  0  0  0  0  0  0  0  0  0  0  0
  -15.2810  -25.6830   -8.6900 C   0  0  0  0  0  0  0  0  0  0  0  0
  -21.6850  -20.9090   -7.0370 C   0  0  0  0  0  0  0  0  0  0  0  0
  -27.3590  -22.2950   -9.9810 C   0  0  0  0  0  0  0  0  0  0  0  0
  -26.8180  -17.6260   -3.7560 O   0  0  0  0  0  0  0  0  0  0  0  0
  -19.5600  -23.3670  -10.0630 O   0  0  0  0  0  0  0  0  0  0  0  0
  -27.2620  -19.5470   -5.0680 O   0  0  0  0  0  0  0  0  0  0  0  0
   -6.0600  -32.0460   -4.2990 O   0  0  0  0  0  0  0  0  0  0  0  0
  -25.4470  -18.2260   -5.6220 C   0  0  0  0  0  0  0  0  0  0  0  0
  -11.3330  -26.4990   -8.1930 C   0  0  0  0  0  0  0  0  0  0  0  0
   -7.0920  -31.2780   -4.7580 N   0  0  0  0  0  0  0  0  0  0  0  0
   -8.3100  -28.5150   -4.7090 O   0  0  0  0  0  0  0  0  0  0  0  0
   -7.8780  -29.2970   -6.0190 C   0  0  0  0  0  0  0  0  0  0  0  0
  -13.9380  -27.6290   -7.7580 C   0  0  0  0  0  0  0  0  0  0  0  0
  -17.6200  -25.8810   -9.3830 C   0  0  0  0  0  0  0  0  0  0  0  0
  -11.2050  -27.6420   -7.6720 C   0  0  0  0  0  0  0  0  0  0  0  0
  -26.9350  -21.2590   -9.4360 C   0  0  0  0  0  0  0  0  0  0  0  0
  -17.3980  -24.6000   -8.9460 C   0  0  0  0  0  0  0  0  0  0  0  0
  -23.3200  -19.4200   -7.1640 C   0  0  0  0  0  0  0  0  0  0  0  0
  -24.1980  -18.3990   -7.6650 C   0  0  0  0  0  0  0  0  0  0  0  0
  -23.3380  -21.0340   -7.5610 C   0  0  0  0  0  0  0  0  0  0  0  0
   -8.7830  -30.2830   -6.6100 C   0  0  0  0  0  0  0  0  0  0  0  0
  -17.5240  -22.4240   -7.9650 N   0  0  0  0  0  0  0  0  0  0  0  0
  -15.9400  -21.7090   -6.1710 C   0  0  0  0  0  0  0  0  0  0  0  0
  -16.4090  -27.0700   -9.3890 S   0  0  0  0  0  0  0  0  0  0  0  0
  -15.6560  -22.1740   -4.6630 C   0  0  0  0  0  0  0  0  0  0  0  0
  -26.7470  -18.2210   -5.0860 C   0  0  0  0  0  0  0  0  0  0  0  0
   -9.1050  -26.0870   -7.0400 C   0  0  0  0  0  0  0  0  0  0  0  0
   -6.6970  -30.0870   -5.3310 C   0  0  0  0  0  0  0  0  0  0  0  0
  -26.3830  -19.4530   -7.3220 C   0  0  0  0  0  0  0  0  0  0  0  0
  -16.4810  -21.6410   -3.6730 C   0  0  0  0  0  0  0  0  0  0  0  0
  -12.6340  -25.5140   -8.1640 C   0  0  0  0  0  0  0  0  0  0  0  0
  -13.9180  -26.2080   -8.1570 C   0  0  0  0  0  0  0  0  0  0  0  0
  -21.9890  -19.4270   -7.0800 C   0  0  0  0  0  0  0  0  0  0  0  0
  -10.4200  -25.4740   -7.2470 C   0  0  0  0  0  0  0  0  0  0  0  0
  -18.6880  -23.4940   -8.5850 S   0  0  0  0  0  0  0  0  0  0  0  0
  -10.0440  -29.8280   -7.2560 C   0  0  0  0  0  0  0  0  0  0  0  0
  -20.1920  -22.8140   -7.6000 C   0  0  0  0  0  0  0  0  0  0  0  0
  -26.6800  -19.7060   -9.1100 S   0  0  0  0  0  0  0  0  0  0  0  0
  -17.7290  -21.2630   -4.0780 C   0  0  0  0  0  0  0  0  0  0  0  0
  -10.1020  -28.3520   -6.9440 N   0  0  0  0  0  0  0  0  0  0  0  0
  -27.2790  -20.1680   -6.3350 C   0  0  0  0  0  0  0  0  0  0  0  0
  1 49  1  0
  3 29  1  0
  3 18  1  0
  5 11  1  0
  6 32  1  0
  6 33  1  0
  6  1  1  0
  7 47  1  0
  8 24  1  0
 10 50  1  0
 11 42  1  0
 12  7  1  0
 13 26  3  0
 18 36  1  0
 19 41  1  0
 19 25  1  0
 19 44  1  0
 20 17  1  0
 22 38  1  0
 22 21  1  0
 23  2  1  0
 24 27  2  0
 25  2  2  0
 25 50  1  0
 26 48  1  0
 27  5  1  0
 27 45  1  0
 28 29  1  0
 28 43  1  0
 30 28  1  0
 30 12  1  0
 31 22  1  0
 33 35  1  0
 34 24  1  0
 34 11  1  0
 35 40  1  0
 36 16  1  0
 36 14  1  0
 37 10  1  0
 38 20  1  0
 39 48  1  0
 39  3  1  0
 39 51  1  0
 41 42  1  0
 42 23  2  0
 43 12  1  0
 43  4  1  0
 44 37  1  0
 45 15  1  0
 45 32  1  0
 45 47  1  0
 46 50  1  0
 46 31  1  0
 47  9  2  0
 49 40  2  0
 51 16  1  0
M  END
$$$$

     RDKit          3D

 11 11  0  0  0  0  0  0  0  0999 V2000
  -19.3120  -22.9550   -5.6510 O   0  0  0  0  0  0  0  0  0  0  0  0
  -18.5130  -23.7640   -7.6790 C   0  0  0  0  0  0  0  0  0  0  0  0
  -17.8880  -25.4040   -9.2110 C   0  0  0  0  0  0  0  0  0  0  0  0
  -16.5520  -25.2050   -8.8480 C   0  0  0  0  0  0  0  0  0  0  0  0
  -17.2950  -23.4120   -7.3820 C   0  0  0  0  0  0  0  0  0  0  0  0
  -18.5180  -21.9460   -5.6760 O   0  0  0  0  0  0  0  0  0  0  0  0
  -19.7920  -23.2350   -6.9440 C   0  0  0  0  0  0  0  0  0  0  0  0
  -18.9130  -24.7170   -8.6000 C   0  0  0  0  0  0  0  0  0  0  0  0
  -16.3350  -24.1390   -8.0380 C   0  0  0  0  0  0  0  0  0  0  0  0
  -21.0510  -22.3200   -7.5740 S   0  0  0  0  0  0  0  0  0  0  0  0
  -20.1390  -24.9160   -8.9920 O   0  0  0  0  0  0  0  0  0  0  0  0
  2  5  1  0
  2  7  1  0
  3  4  2  0
  3  8  1  0
  4  9  1  0
  6  1  1  0
  7  1  1  0
  8  2  2  0
  9  5  2  0
 10  7  2  0
 11  8  1  0
M  END
$$$$

     RDKit          3D

 14 15  0  0  0  0  0  0  0  0999 V2000
  -11.4880  -21.5290   -5.4250 C   0  0  0  0  0  0  0  0  0  0  0  0
  -12.4670  -22.6290   -5.6730 C   0  0  0  0  0  0  0  0  0  0  0  0
  -15.6660  -23.5560   -6.4330 C   0  0  0  0  0  0  0  0  0  0  0  0
  -20.1200  -24.0940   -9.1710 C   0  0  0  0  0  0  0  0  0  0  0  0
  -20.0500  -22.8000   -8.3920 C   0  0  0  0  0  0  0  0  0  0  0  0
  -18.8940  -22.4320   -7.6790 C   0  0  0  0  0  0  0  0  0  0  0  0
  -14.6350  -22.8020   -6.7670 C   0  0  0  0  0  0  0  0  0  0  0  0
  -17.2410  -22.6850   -4.9510 O   0  0  0  0  0  0  0  0  0  0  0  0
  -16.6640  -22.9760   -5.7890 C   0  0  0  0  0  0  0  0  0  0  0  0
  -18.9780  -24.9270   -9.2660 C   0  0  0  0  0  0  0  0  0  0  0  0
  -16.5510  -22.9160   -7.2680 N   0  0  0  0  0  0  0  0  0  0  0  0
  -17.7620  -23.3350   -7.8160 C   0  0  0  0  0  0  0  0  0  0  0  0
  -13.9520  -22.2220   -5.5960 C   0  0  0  0  0  0  0  0  0  0  0  0
  -17.7630  -24.4970   -8.5710 C   0  0  0  0  0  0  0  0  0  0  0  0
  2 13  1  0
  2  1  1  0
  3  7  1  0
  3  9  1  0
  4  5  1  0
  5  6  2  0
  7 13  1  0
  9  8  2  0
 10  4  2  0
 10 14  1  0
 11  3  1  0
 11  9  1  0
 12  6  1  0
 12 11  1  0
 14 12  2  0
M  END
$$$$

     RDKit          3D

 10 12  0  0  0  0  0  0  0  0999 V2000
  -16.9490  -22.2040   -5.4760 C   0  0  0  0  0  0  0  0  0  0  0  0
  -18.6110  -23.9110   -7.4490 C   0  0  0  0  0  0  0  0  0  0  0  0
  -18.2440  -22.7960   -5.6440 C   0  0  0  0  0  0  0  0  0  0  0  0
  -17.4550  -23.0990   -7.2320 C   0  0  0  0  0  0  0  0  0  0  0  0
  -19.3720  -22.4500   -6.2740 C   0  0  0  0  0  0  0  0  0  0  0  0
  -18.4830  -23.5710   -4.6270 C   0  0  0  0  0  0  0  0  0  0  0  0
  -16.5960  -22.4980   -7.8580 C   0  0  0  0  0  0  0  0  0  0  0  0
  -16.6670  -23.7980   -6.2130 C   0  0  0  0  0  0  0  0  0  0  0  0
  -16.3080  -23.1400   -4.7770 C   0  0  0  0  0  0  0  0  0  0  0  0
  -19.1030  -22.3130   -7.4640 C   0  0  0  0  0  0  0  0  0  0  0  0
  1  9  1  0
  2  4  1  0
  3  1  1  0
  3  6  1  0
  4  7  1  0
  4  8  1  0
  4  3  1  0
  5  3  1  0
  8  1  1  0
  8  9  1  0
 10  2  1  0
 10  5  1  0
M  END
$$$$

     RDKit          3D

 22 24  0  0  0  0  0  0  0  0999 V2000
  -19.7030  -21.0320   -6.3110 C   0  0  0  0  0  0  0  0  0  0  0  0
  -20.6990  -23.7720   -8.4700 N   0  0  0  0  0  0  0  0  0  0  0  0
  -19.9890  -24.4430   -8.8640 C   0  0  0  0  0  0  0  0  0  0  0  0
  -15.8410  -23.0380   -7.2520 C   0  0  0  0  0  0  0  0  0  0  0  0
  -12.6310  -25.4550   -8.0500 C   0  0  0  0  0  0  0  0  0  0  0  0
  -17.4750  -24.1970   -8.4840 C   0  0  0  0  0  0  0  0  0  0  0  0
  -11.2210  -24.2980   -6.7510 C   0  0  0  0  0  0  0  0  0  0  0  0
  -14.6270  -22.8780   -6.6160 C   0  0  0  0  0  0  0  0  0  0  0  0
  -13.6920  -24.7210   -7.8260 C   0  0  0  0  0  0  0  0  0  0  0  0
  -14.9200  -24.9330   -8.4090 C   0  0  0  0  0  0  0  0  0  0  0  0
  -17.8930  -25.2560   -9.2120 C   0  0  0  0  0  0  0  0  0  0  0  0
  -20.4110  -21.8810   -7.3710 C   0  0  0  0  0  0  0  0  0  0  0  0
  -19.6030  -23.0290   -7.9530 C   0  0  0  0  0  0  0  0  0  0  0  0
  -21.6500  -21.6890   -7.8580 O   0  0  0  0  0  0  0  0  0  0  0  0
  -11.3810  -25.2840   -7.5460 C   0  0  0  0  0  0  0  0  0  0  0  0
  -18.2270  -23.2000   -7.9200 N   0  0  0  0  0  0  0  0  0  0  0  0
  -22.7180  -21.4340   -6.9690 C   0  0  0  0  0  0  0  0  0  0  0  0
  -19.2890  -25.1970   -9.5060 N   0  0  0  0  0  0  0  0  0  0  0  0
  -12.3280  -23.5500   -6.3060 C   0  0  0  0  0  0  0  0  0  0  0  0
  -22.9180  -20.0140   -6.8310 C   0  0  0  0  0  0  0  0  0  0  0  0
  -13.5780  -23.7190   -6.8590 C   0  0  0  0  0  0  0  0  0  0  0  0
  -15.9910  -24.1110   -8.1780 C   0  0  0  0  0  0  0  0  0  0  0  0
  2 13  2  0
  3  2  1  0
  4  8  1  0
  5  9  1  0
  5 15  2  0
  6 22  1  0
  6 16  2  0
  7 19  2  0
  9 21  1  0
 10 22  1  0
 10  9  2  0
 11  6  1  0
 12  1  1  0
 13 16  2  0
 13 12  1  0
 14 12  1  0
 14 17  1  0
 15  7  1  0
 17 20  1  0
 18 11  1  0
 18  3  1  0
 21  8  2  0
 21 19  1  0
 22  4  2  0
M  END
$$$$

     RDKit          3D

  7  7  0  0  0  0  0  0  0  0999 V2000
  -17.9840  -24.4330   -8.5670 N   0  0  0  0  0  0  0  0  0  0  0  0
  -20.0260  -21.2780   -6.9490 C   0  0  0  0  0  0  0  0  0  0  0  0
  -17.9790  -22.9180   -7.1430 C   0  0  0  0  0  0  0  0  0  0  0  0
  -18.3970  -21.6380   -6.3850 C   0  0  0  0  0  0  0  0  0  0  0  0
  -16.7800  -23.6740   -6.9530 N   0  0  0  0  0  0  0  0  0  0  0  0
  -18.5300  -23.3430   -8.1650 N   0  0  0  0  0  0  0  0  0  0  0  0
  -16.8850  -24.5020   -7.7510 C   0  0  0  0  0  0  0  0  0  0  0  0
  1  6  1  0
  1  7  2  0
  2  4  1  0
  3  5  2  0
  3  4  1  0
  6  3  2  0
  7  5  1  0
M  END
$$$$

     RDKit          3D

 13 13  0  0  0  0  0  0  0  0999 V2000
  -20.7390  -21.9190   -7.7560 C   0  0  0  0  0  0  0  0  0  0  0  0
  -15.1340  -24.3150   -7.6100 C   0  0  0  0  0  0  0  0  0  0  0  0
  -16.9420  -25.3980   -9.0410 C   0  0  0  0  0  0  0  0  0  0  0  0
  -21.6100  -19.9430   -6.5860 O   0  0  0  0  0  0  0  0  0  0  0  0
  -18.3340  -22.6720   -7.3210 C   0  0  0  0  0  0  0  0  0  0  0  0
  -19.3960  -20.8840   -6.2280 C   0  0  0  0  0  0  0  0  0  0  0  0
  -20.4260  -20.5770   -6.6300 C   0  0  0  0  0  0  0  0  0  0  0  0
  -17.6080  -24.1050   -6.9790 C   0  0  0  0  0  0  0  0  0  0  0  0
  -16.5750  -24.4330   -7.9560 N   0  0  0  0  0  0  0  0  0  0  0  0
  -18.1110  -21.5010   -6.4220 C   0  0  0  0  0  0  0  0  0  0  0  0
  -19.7910  -22.8810   -7.8590 C   0  0  0  0  0  0  0  0  0  0  0  0
  -17.0560  -23.9300   -5.7910 O   0  0  0  0  0  0  0  0  0  0  0  0
  -13.9200  -25.3130   -8.1080 S   0  0  0  0  0  0  0  0  0  0  0  0
  1  7  2  0
  3  9  1  0
  5  8  1  0
  5 10  1  0
  7  4  1  0
  7  6  1  0
  8 12  1  0
  9  2  1  0
  9  8  1  0
 10  6  1  0
 11  1  1  0
 11  5  1  0
 13  2  1  0
M  END
$$$$

     RDKit          3D

  7  8  0  0  0  0  0  0  0  0999 V2000
  -16.1990  -23.0060   -5.5880 O   0  0  0  0  0  0  0  0  0  0  0  0
  -14.8130  -24.0880   -7.1120 O   0  0  0  0  0  0  0  0  0  0  0  0
  -17.7650  -23.0490   -6.7260 C   0  0  0  0  0  0  0  0  0  0  0  0
  -17.6250  -21.9690   -7.7040 O   0  0  0  0  0  0  0  0  0  0  0  0
  -16.0070  -24.4410   -7.6400 C   0  0  0  0  0  0  0  0  0  0  0  0
  -17.5100  -22.5880   -5.4460 C   0  0  0  0  0  0  0  0  0  0  0  0
  -16.7280  -23.9910   -6.4500 C   0  0  0  0  0  0  0  0  0  0  0  0
  3  4  1  0
  3  7  1  0
  3  6  1  0
  5  2  1  0
  6  1  1  0
  7  5  1  0
  7  1  1  0
  7  6  1  0
M  END
$$$$

     RDKit          3D

 12 12  0  0  0  0  0  0  0  0999 V2000
  -17.2980  -22.2820   -7.5000 C   0  0  0  0  0  0  0  0  0  0  0  0
  -17.6700  -21.0900   -6.5540 C   0  0  0  0  0  0  0  0  0  0  0  0
  -17.2800  -24.3870   -8.0130 C   0  0  0  0  0  0  0  0  0  0  0  0
  -15.5480  -24.8500   -9.1840 S   0  0  0  0  0  0  0  0  0  0  0  0
  -18.2410  -22.0630   -5.4240 C   0  0  0  0  0  0  0  0  0  0  0  0
  -18.5870  -20.1480   -6.9390 O   0  0  0  0  0  0  0  0  0  0  0  0
  -19.4860  -19.8570   -5.9470 C   0  0  0  0  0  0  0  0  0  0  0  0
  -17.8800  -23.5110   -7.6300 O   0  0  0  0  0  0  0  0  0  0  0  0
  -16.7230  -26.3510   -9.7770 C   0  0  0  0  0  0  0  0  0  0  0  0
  -16.9760  -22.8690   -5.3710 C   0  0  0  0  0  0  0  0  0  0  0  0
  -18.3800  -25.5110   -9.2650 S   0  0  0  0  0  0  0  0  0  0  0  0
  -16.1850  -22.7850   -7.1500 O   0  0  0  0  0  0  0  0  0  0  0  0
  1 12  1  0
  1  2  1  0
  2  5  1  0
  3  8  1  0
  4  3  1  0
  5 10  1  0
  6  2  1  0
  6  7  1  0
  8  1  1  0
  9 11  1  0
  9  4  1  0
 11  3  1  0
M  END
$$$$

     RDKit          3D

 16 18  0  0  0  0  0  0  0  0999 V2000
  -19.0440  -22.2620   -6.4750 S   0  0  0  0  0  0  0  0  0  0  0  0
  -17.6540  -22.7500   -6.7120 C   0  0  0  0  0  0  0  0  0  0  0  0
  -17.2760  -24.6200   -8.1660 C   0  0  0  0  0  0  0  0  0  0  0  0
  -18.0710  -23.6220   -7.5320 C   0  0  0  0  0  0  0  0  0  0  0  0
  -16.6250  -22.3380   -7.1410 C   0  0  0  0  0  0  0  0  0  0  0  0
  -15.6030  -22.7550   -5.1010 C   0  0  0  0  0  0  0  0  0  0  0  0
  -16.8670  -23.5500   -7.9040 C   0  0  0  0  0  0  0  0  0  0  0  0
  -15.7870  -23.7510   -7.2600 C   0  0  0  0  0  0  0  0  0  0  0  0
  -17.5190  -22.0770   -6.4220 C   0  0  0  0  0  0  0  0  0  0  0  0
  -15.1040  -25.0080   -7.9600 C   0  0  0  0  0  0  0  0  0  0  0  0
  -16.8460  -25.6420   -8.9280 C   0  0  0  0  0  0  0  0  0  0  0  0
  -18.1360  -21.7460   -5.0300 S   0  0  0  0  0  0  0  0  0  0  0  0
  -16.0270  -23.6430   -5.9470 C   0  0  0  0  0  0  0  0  0  0  0  0
  -16.7440  -22.7050   -5.8550 C   0  0  0  0  0  0  0  0  0  0  0  0
  -15.6020  -25.8830   -8.6930 C   0  0  0  0  0  0  0  0  0  0  0  0
  -18.0490  -22.8340   -6.1460 C   0  0  0  0  0  0  0  0  0  0  0  0
  1 16  1  0
  2  9  1  0
  2 16  1  0
  3 11  1  0
  3  7  1  0
  3  4  1  0
  7  4  1  0
  7  8  1  0
  8 13  1  0
  9  5  1  0
  9 16  1  0
  9 14  1  0
 10  8  1  0
 11 15  1  0
 13 14  1  0
 13  6  1  0
 15 10  1  0
 16 12  1  0
M  END
$$$$

     RDKit          3D

 25 27  0  0  0  0  0  0  0  0999 V2000
  -17.1000  -26.3890   -8.3560 C   0  0  0  0  0  0  0  0  0  0  0  0
  -20.2250  -21.6460   -6.5900 C   0  0  0  0  0  0  0  0  0  0  0  0
  -19.6070  -21.7200   -5.5090 C   0  0  0  0  0  0  0  0  0  0  0  0
  -19.9060  -22.0170   -7.7010 C   0  0  0  0  0  0  0  0  0  0  0  0
  -18.3980  -24.1360   -8.9550 S   0  0  0  0  0  0  0  0  0  0  0  0
  -14.7410  -26.4140   -8.1970 C   0  0  0  0  0  0  0  0  0  0  0  0
  -21.5440  -21.1040   -6.4520 C   0  0  0  0  0  0  0  0  0  0  0  0
  -14.3100  -24.5900   -9.7000 C   0  0  0  0  0  0  0  0  0  0  0  0
  -12.9970  -24.7410   -9.0200 C   0  0  0  0  0  0  0  0  0  0  0  0
  -17.6770  -23.0590   -7.7230 C   0  0  0  0  0  0  0  0  0  0  0  0
  -15.2680  -25.2240   -8.8170 N   0  0  0  0  0  0  0  0  0  0  0  0
  -11.5860  -27.4710   -6.8560 C   0  0  0  0  0  0  0  0  0  0  0  0
  -16.8560  -25.1120   -8.9310 C   0  0  0  0  0  0  0  0  0  0  0  0
  -11.7800  -26.5240   -7.7830 C   0  0  0  0  0  0  0  0  0  0  0  0
  -10.6540  -27.1400   -5.9130 C   0  0  0  0  0  0  0  0  0  0  0  0
  -13.0880  -26.1400   -8.3520 C   0  0  0  0  0  0  0  0  0  0  0  0
  -10.4130  -28.1500   -4.6980 C   0  0  0  0  0  0  0  0  0  0  0  0
   -9.8600  -26.2350   -6.1500 O   0  0  0  0  0  0  0  0  0  0  0  0
  -10.9430  -26.5900   -8.7580 O   0  0  0  0  0  0  0  0  0  0  0  0
  -17.1240  -24.3320   -7.0200 C   0  0  0  0  0  0  0  0  0  0  0  0
  -21.8560  -20.2260   -5.2550 C   0  0  0  0  0  0  0  0  0  0  0  0
  -15.7280  -24.3640   -7.7970 C   0  0  0  0  0  0  0  0  0  0  0  0
  -20.7590  -19.9940   -4.4380 C   0  0  0  0  0  0  0  0  0  0  0  0
  -18.5010  -22.7790   -7.9420 C   0  0  0  0  0  0  0  0  0  0  0  0
  -19.9900  -21.0590   -4.3700 C   0  0  0  0  0  0  0  0  0  0  0  0
  2  7  1  0
  2  3  1  0
  3 25  1  0
  4  2  2  3
  5 24  2  0
  7 21  1  0
  8  9  1  0
  9 16  1  0
 10 20  1  0
 11  8  1  0
 11  6  1  0
 11 22  1  0
 12 15  1  0
 13 11  1  0
 13  1  1  0
 13 22  1  0
 14 19  1  0
 14 12  1  0
 15 17  1  0
 16  6  1  0
 16 14  1  0
 18 15  2  0
 21 23  1  0
 22 20  1  0
 23 25  1  0
 24 10  1  0
 24  4  1  0
M  END
$$$$

     RDKit          3D

  6  6  0  0  0  0  0  0  0  0999 V2000
  -17.7920  -21.7220   -7.0510 C   0  0  0  0  0  0  0  0  0  0  0  0
  -15.5540  -22.8100   -7.1190 N   0  0  0  0  0  0  0  0  0  0  0  0
  -17.2260  -23.9740   -8.1140 C   0  0  0  0  0  0  0  0  0  0  0  0
  -16.8410  -22.7940   -7.4260 C   0  0  0  0  0  0  0  0  0  0  0  0
  -16.0350  -24.8260   -8.0790 C   0  0  0  0  0  0  0  0  0  0  0  0
  -14.7850  -24.1660   -7.4370 S   0  0  0  0  0  0  0  0  0  0  0  0
  3  5  2  0
  3  4  1  0
  4  2  2  0
  4  1  1  0
  5  6  1  0
  6  2  1  0
M  END
$$$$

     RDKit          3D

 15 16  0  0  0  0  0  0  0  0999 V2000
  -16.0390  -25.2370   -9.1490 C   0  0  0  0  0  0  0  0  0  0  0  0
  -15.9030  -24.0390   -6.9930 C   0  0  0  0  0  0  0  0  0  0  0  0
  -21.4990  -20.3490   -6.6820 C   0  0  0  0  0  0  0  0  0  0  0  0
  -22.1180  -21.4260   -7.2270 C   0  0  0  0  0  0  0  0  0  0  0  0
  -19.3420  -21.4220   -7.1530 C   0  0  0  0  0  0  0  0  0  0  0  0
  -18.4320  -25.8750   -9.9330 C   0  0  0  0  0  0  0  0  0  0  0  0
  -19.3910  -23.6800   -8.2760 C   0  0  0  0  0  0  0  0  0  0  0  0
  -20.0210  -22.5280   -7.7130 C   0  0  0  0  0  0  0  0  0  0  0  0
  -17.3850  -23.7530   -6.8160 C   0  0  0  0  0  0  0  0  0  0  0  0
  -18.1100  -24.1310   -8.0180 N   0  0  0  0  0  0  0  0  0  0  0  0
  -20.1410  -24.3810   -8.9170 O   0  0  0  0  0  0  0  0  0  0  0  0
  -20.1330  -20.3620   -6.7470 C   0  0  0  0  0  0  0  0  0  0  0  0
  -21.4100  -22.5250   -7.7250 C   0  0  0  0  0  0  0  0  0  0  0  0
  -15.4170  -24.0250   -8.4340 C   0  0  0  0  0  0  0  0  0  0  0  0
  -17.5790  -25.3480   -8.7490 C   0  0  0  0  0  0  0  0  0  0  0  0
  1 15  1  0
  1 14  1  0
  2  9  1  0
  4  3  2  0
  5 12  2  0
  7 10  1  0
  7  8  1  0
  8  5  1  0
 10  9  1  0
 11  7  2  0
 12  3  1  0
 13  8  2  0
 13  4  1  0
 14  2  1  0
 15  6  1  0
 15 10  1  0
M  END
$$$$

     RDKit          3D

 13 14  0  0  0  0  0  0  0  0999 V2000
  -20.5260  -22.7950   -7.4400 C   0  0  0  0  0  0  0  0  0  0  0  0
  -18.8350  -24.1000   -8.4730 C   0  0  0  0  0  0  0  0  0  0  0  0
  -20.1530  -23.6620   -8.3940 C   0  0  0  0  0  0  0  0  0  0  0  0
  -15.4420  -24.0420   -7.1790 C   0  0  0  0  0  0  0  0  0  0  0  0
  -18.4160  -23.0000   -6.3570 C   0  0  0  0  0  0  0  0  0  0  0  0
  -17.9060  -21.8520   -4.3080 C   0  0  0  0  0  0  0  0  0  0  0  0
  -17.5430  -22.0750   -5.8200 O   0  0  0  0  0  0  0  0  0  0  0  0
  -17.9300  -23.6850   -7.4880 C   0  0  0  0  0  0  0  0  0  0  0  0
  -15.9690  -24.8270   -8.7620 C   0  0  0  0  0  0  0  0  0  0  0  0
  -16.4500  -23.9820   -7.7400 C   0  0  0  0  0  0  0  0  0  0  0  0
  -19.7240  -22.4050   -6.5100 N   0  0  0  0  0  0  0  0  0  0  0  0
  -14.7600  -25.0680   -8.5830 N   0  0  0  0  0  0  0  0  0  0  0  0
  -14.3790  -24.4960   -7.5690 N   0  0  0  0  0  0  0  0  0  0  0  0
  1 11  1  0
  2  3  1  0
  2  8  2  0
  3  1  2  0
  5  7  1  0
  7  6  1  0
  8  5  1  0
  9 12  2  0
  9 10  1  0
 10  8  1  0
 10  4  2  0
 11  5  2  0
 12 13  1  0
 13  4  1  0
M  END
$$$$

     RDKit          3D

 17 19  0  0  0  0  0  0  0  0999 V2000
  -19.2140  -23.9790   -8.6080 N   0  0  0  0  0  0  0  0  0  0  0  0
  -17.6850  -21.7360   -2.6770 C   0  0  0  0  0  0  0  0  0  0  0  0
  -15.9310  -24.4470   -7.3620 C   0  0  0  0  0  0  0  0  0  0  0  0
  -14.9500  -24.3310   -6.3460 C   0  0  0  0  0  0  0  0  0  0  0  0
  -17.9860  -24.5430   -8.5660 C   0  0  0  0  0  0  0  0  0  0  0  0
  -17.7440  -23.6200   -4.3050 C   0  0  0  0  0  0  0  0  0  0  0  0
  -18.1970  -21.0110   -3.6810 C   0  0  0  0  0  0  0  0  0  0  0  0
  -18.1100  -22.7410   -5.3810 C   0  0  0  0  0  0  0  0  0  0  0  0
  -15.4490  -25.2770   -8.3870 N   0  0  0  0  0  0  0  0  0  0  0  0
  -17.2660  -23.9960   -7.4420 C   0  0  0  0  0  0  0  0  0  0  0  0
  -16.2990  -25.7010   -9.3580 C   0  0  0  0  0  0  0  0  0  0  0  0
  -18.2540  -23.1500   -6.7410 C   0  0  0  0  0  0  0  0  0  0  0  0
  -17.5750  -25.3800   -9.5370 N   0  0  0  0  0  0  0  0  0  0  0  0
  -17.3900  -23.1200   -3.0030 C   0  0  0  0  0  0  0  0  0  0  0  0
  -17.5080  -21.3100   -1.2610 C   0  0  0  0  0  0  0  0  0  0  0  0
  -18.3760  -21.4660   -4.8970 C   0  0  0  0  0  0  0  0  0  0  0  0
  -19.3710  -23.1120   -7.5460 C   0  0  0  0  0  0  0  0  0  0  0  0
  1  5  2  0
  1 17  1  0
  2 15  1  0
  3  4  1  0
  6 14  2  0
  7  2  2  0
  8 16  2  0
  8  6  1  0
  9  3  2  0
 10  5  1  0
 10  3  1  0
 10 12  1  0
 11  9  1  0
 12  8  1  0
 13 11  1  0
 13  5  2  0
 14  2  1  0
 16  7  1  0
 17 12  2  0
M  END
$$$$

     RDKit          3D

 20 20  0  0  0  0  0  0  0  0999 V2000
  -18.2950  -20.3240   -4.2470 C   0  0  0  0  0  0  0  0  0  0  0  0
  -15.7670  -23.0950   -4.9730 C   0  0  0  0  0  0  0  0  0  0  0  0
  -19.1350  -22.4220   -6.8900 C   0  0  0  0  0  0  0  0  0  0  0  0
  -13.8050  -23.3610   -6.6390 C   0  0  0  0  0  0  0  0  0  0  0  0
  -14.8210  -22.2490   -4.3950 O   0  0  0  0  0  0  0  0  0  0  0  0
  -17.0170  -22.1850   -5.4800 C   0  0  0  0  0  0  0  0  0  0  0  0
  -14.7090  -25.4960   -8.1620 O   0  0  0  0  0  0  0  0  0  0  0  0
  -19.8600  -21.6650   -6.4410 O   0  0  0  0  0  0  0  0  0  0  0  0
  -17.7580  -21.7820   -4.2760 C   0  0  0  0  0  0  0  0  0  0  0  0
  -18.6300  -24.4520   -7.9490 O   0  0  0  0  0  0  0  0  0  0  0  0
  -15.2290  -23.4530   -6.3830 C   0  0  0  0  0  0  0  0  0  0  0  0
  -20.8290  -23.6110   -8.2240 C   0  0  0  0  0  0  0  0  0  0  0  0
  -17.7200  -19.7190   -3.4360 O   0  0  0  0  0  0  0  0  0  0  0  0
  -19.3590  -23.2200   -8.1230 C   0  0  0  0  0  0  0  0  0  0  0  0
  -15.8790  -25.1010   -8.0870 C   0  0  0  0  0  0  0  0  0  0  0  0
  -18.8180  -25.1610   -9.9860 O   0  0  0  0  0  0  0  0  0  0  0  0
  -17.8710  -22.7590   -6.4120 O   0  0  0  0  0  0  0  0  0  0  0  0
  -16.8430  -25.6820   -8.8690 C   0  0  0  0  0  0  0  0  0  0  0  0
  -16.1280  -24.0640   -7.2200 N   0  0  0  0  0  0  0  0  0  0  0  0
  -18.1090  -25.0970   -9.0040 C   0  0  0  0  0  0  0  0  0  0  0  0
  1 13  1  0
  2  5  1  0
  3  8  2  0
  3 17  1  0
  4 11  1  0
  6  2  1  0
  6  9  1  0
  7 15  2  0
  9  1  1  0
 11  2  1  0
 14 12  1  0
 14 10  1  0
 14  3  1  0
 15 19  2  0
 16 20  2  0
 17  6  1  0
 18 15  1  0
 19 11  2  0
 20 18  1  0
 20 10  1  0
M  END
$$$$

     RDKit          3D

 28 31  0  0  0  0  0  0  0  0999 V2000
  -15.8120  -25.9790   -9.1000 C   0  0  0  0  0  0  0  0  0  0  0  0
  -19.2880  -24.9880   -9.3320 O   0  0  0  0  0  0  0  0  0  0  0  0
  -20.6620  -20.9240   -5.8130 C   0  0  0  0  0  0  0  0  0  0  0  0
  -19.2990  -25.9670   -9.7540 O   0  0  0  0  0  0  0  0  0  0  0  0
  -13.7180  -26.2180   -8.0790 O   0  0  0  0  0  0  0  0  0  0  0  0
  -23.3780  -21.1870   -6.8160 C   0  0  0  0  0  0  0  0  0  0  0  0
  -16.5760  -23.6590   -7.6100 C   0  0  0  0  0  0  0  0  0  0  0  0
  -17.9710  -23.9300   -7.9010 C   0  0  0  0  0  0  0  0  0  0  0  0
  -20.7240  -21.5390   -7.1550 C   0  0  0  0  0  0  0  0  0  0  0  0
  -17.8270  -22.1360   -6.7600 O   0  0  0  0  0  0  0  0  0  0  0  0
  -24.9510  -20.2880   -4.6210 C   0  0  0  0  0  0  0  0  0  0  0  0
  -15.2660  -21.9010   -6.8690 C   0  0  0  0  0  0  0  0  0  0  0  0
  -22.9400  -19.9910   -5.8820 C   0  0  0  0  0  0  0  0  0  0  0  0
  -22.1910  -21.4760   -7.7860 C   0  0  0  0  0  0  0  0  0  0  0  0
  -13.8220  -19.7330   -4.4870 O   0  0  0  0  0  0  0  0  0  0  0  0
  -15.1750  -24.4200   -7.4860 C   0  0  0  0  0  0  0  0  0  0  0  0
  -15.1920  -20.7490   -6.1580 C   0  0  0  0  0  0  0  0  0  0  0  0
  -14.9140  -25.5970   -8.1620 C   0  0  0  0  0  0  0  0  0  0  0  0
  -13.5180  -21.9690   -5.1400 C   0  0  0  0  0  0  0  0  0  0  0  0
  -17.1980  -25.7530   -9.0430 C   0  0  0  0  0  0  0  0  0  0  0  0
  -16.5740  -22.4770   -7.0890 N   0  0  0  0  0  0  0  0  0  0  0  0
  -14.2860  -22.6830   -5.9300 C   0  0  0  0  0  0  0  0  0  0  0  0
  -14.2410  -20.5890   -5.1840 C   0  0  0  0  0  0  0  0  0  0  0  0
  -18.7330  -23.0870   -7.3430 C   0  0  0  0  0  0  0  0  0  0  0  0
  -20.1850  -22.9450   -7.2190 C   0  0  0  0  0  0  0  0  0  0  0  0
  -21.4490  -19.6280   -5.8400 C   0  0  0  0  0  0  0  0  0  0  0  0
  -18.1400  -24.8820   -8.8160 C   0  0  0  0  0  0  0  0  0  0  0  0
  -23.8800  -19.4140   -4.9000 O   0  0  0  0  0  0  0  0  0  0  0  0
  1 20  2  0
  1 18  1  0
  2 27  1  0
  4  2  1  0
  6 13  1  0
  7 16  2  0
  7 21  1  0
  8  7  1  0
  8 24  1  0
  9 25  1  0
  9  3  1  0
 12 21  1  0
 12 17  1  0
 12 22  1  0
 13 26  1  0
 13 28  1  0
 14  9  1  0
 14  6  1  0
 17 23  1  0
 18  5  1  0
 18 16  1  0
 20 27  1  0
 21 10  1  0
 22 19  1  0
 23 19  1  0
 23 15  2  0
 24 25  1  0
 24 10  1  0
 26  3  1  0
 27  8  2  0
 28 11  1  0
M  END
$$$$

     RDKit          3D

 14 15  0  0  0  0  0  0  0  0999 V2000
  -17.5000  -21.5830   -6.0190 C   0  0  0  0  0  0  0  0  0  0  0  0
  -15.0610  -22.1790   -3.4160 O   0  0  0  0  0  0  0  0  0  0  0  0
  -15.7780  -23.4540   -5.1010 C   0  0  0  0  0  0  0  0  0  0  0  0
  -19.8580  -23.3590   -8.8260 N   0  0  0  0  0  0  0  0  0  0  0  0
  -14.6790  -24.7870   -8.0410 C   0  0  0  0  0  0  0  0  0  0  0  0
  -19.4250  -22.7040   -7.8970 N   0  0  0  0  0  0  0  0  0  0  0  0
  -16.9990  -21.5430   -4.5700 C   0  0  0  0  0  0  0  0  0  0  0  0
  -18.2040  -23.1080   -7.5910 C   0  0  0  0  0  0  0  0  0  0  0  0
  -17.5210  -22.7900   -6.6650 C   0  0  0  0  0  0  0  0  0  0  0  0
  -15.9500  -24.2480   -7.4350 C   0  0  0  0  0  0  0  0  0  0  0  0
  -16.4840  -23.5950   -6.2350 C   0  0  0  0  0  0  0  0  0  0  0  0
  -18.9530  -24.2830   -9.1070 N   0  0  0  0  0  0  0  0  0  0  0  0
  -17.9980  -24.1030   -8.3910 N   0  0  0  0  0  0  0  0  0  0  0  0
  -15.5290  -22.0670   -4.7360 C   0  0  0  0  0  0  0  0  0  0  0  0
  1  7  1  0
  3 14  1  0
  4  6  1  0
  5 10  1  0
  6  8  2  0
  9  8  1  0
  9 11  1  0
  9  1  1  0
 11 10  1  0
 11  3  1  0
 12  4  2  0
 12 13  1  0
 13  8  2  0
 14  7  1  0
 14  2  1  0
M  END
$$$$

     RDKit          3D

 18 20  0  0  0  0  0  0  0  0999 V2000
  -19.8010  -25.2350   -9.4630 N   0  0  0  0  0  0  0  0  0  0  0  0
  -18.6740  -23.4300   -8.1220 C   0  0  0  0  0  0  0  0  0  0  0  0
  -16.1220  -25.8990   -9.0900 C   0  0  0  0  0  0  0  0  0  0  0  0
  -14.0190  -24.0530   -7.0090 N   0  0  0  0  0  0  0  0  0  0  0  0
  -15.3080  -24.4980   -7.8160 C   0  0  0  0  0  0  0  0  0  0  0  0
  -20.2730  -20.7890   -6.0590 C   0  0  0  0  0  0  0  0  0  0  0  0
  -20.7930  -20.8560   -4.5320 C   0  0  0  0  0  0  0  0  0  0  0  0
  -15.0330  -25.4450   -8.5060 N   0  0  0  0  0  0  0  0  0  0  0  0
  -18.5070  -25.7380   -9.5860 C   0  0  0  0  0  0  0  0  0  0  0  0
  -17.4610  -24.1550   -8.1930 C   0  0  0  0  0  0  0  0  0  0  0  0
  -19.8740  -24.0470   -8.7890 C   0  0  0  0  0  0  0  0  0  0  0  0
  -16.1860  -23.6040   -7.5850 C   0  0  0  0  0  0  0  0  0  0  0  0
  -18.7550  -21.6330   -3.7180 C   0  0  0  0  0  0  0  0  0  0  0  0
  -18.9050  -22.2620   -7.4350 N   0  0  0  0  0  0  0  0  0  0  0  0
  -19.3460  -21.9570   -6.1160 C   0  0  0  0  0  0  0  0  0  0  0  0
  -17.3570  -25.3030   -8.9910 C   0  0  0  0  0  0  0  0  0  0  0  0
  -19.7170  -20.5730   -3.6720 N   0  0  0  0  0  0  0  0  0  0  0  0
  -18.6590  -22.5690   -4.9520 C   0  0  0  0  0  0  0  0  0  0  0  0
  1 11  1  0
  2 14  1  0
  3 16  1  0
  3  8  1  0
  5 12  1  0
  5  4  1  0
  6  7  1  0
  7 17  1  0
  8  5  2  0
  9  1  2  0
  9 16  1  0
 10  2  1  0
 10 12  1  0
 11  2  2  0
 13 17  1  0
 14 15  1  0
 15  6  1  0
 15 18  1  0
 16 10  2  0
 18 13  1  0
M  END
$$$$
