
     RDKit          3D

 29 32  0  0  0  0  0  0  0  0999 V2000
    2.5010  -18.9810  -51.8000 C   0  0  0  0  0  0  0  0  0  0  0  0
   13.1790  -20.6440  -46.8150 N   0  0  0  0  0  0  0  0  0  0  0  0
   11.6710  -19.0440  -47.3930 C   0  0  0  0  0  0  0  0  0  0  0  0
   10.6200  -18.7110  -48.1640 N   0  0  0  0  0  0  0  0  0  0  0  0
    2.3900  -19.3590  -48.9340 C   0  0  0  0  0  0  0  0  0  0  0  0
   14.7070  -21.4060  -44.5770 O   0  0  0  0  0  0  0  0  0  0  0  0
    6.9100  -19.7120  -47.9270 N   0  0  0  0  0  0  0  0  0  0  0  0
    3.6970  -19.5730  -47.0370 N   0  0  0  0  0  0  0  0  0  0  0  0
    6.4180  -19.2510  -45.5800 S   0  0  0  0  0  0  0  0  0  0  0  0
   12.6660  -20.5990  -45.4680 C   0  0  0  0  0  0  0  0  0  0  0  0
    2.4400  -19.4790  -47.5390 C   0  0  0  0  0  0  0  0  0  0  0  0
    9.2320  -18.8120  -47.8820 C   0  0  0  0  0  0  0  0  0  0  0  0
    4.7580  -19.6040  -47.8240 C   0  0  0  0  0  0  0  0  0  0  0  0
    8.4070  -19.8540  -48.3170 C   0  0  0  0  0  0  0  0  0  0  0  0
    4.8870  -18.9740  -53.1740 C   0  0  0  0  0  0  0  0  0  0  0  0
    6.0800  -19.8070  -47.7550 N   0  0  0  0  0  0  0  0  0  0  0  0
   15.2180  -21.7440  -45.9890 C   0  0  0  0  0  0  0  0  0  0  0  0
    4.8200  -19.1600  -51.7840 C   0  0  0  0  0  0  0  0  0  0  0  0
    6.4550  -19.7160  -46.8560 C   0  0  0  0  0  0  0  0  0  0  0  0
    2.6000  -18.6660  -53.0030 C   0  0  0  0  0  0  0  0  0  0  0  0
   12.5330  -20.0120  -47.7330 C   0  0  0  0  0  0  0  0  0  0  0  0
   13.0010  -19.8290  -48.8360 O   0  0  0  0  0  0  0  0  0  0  0  0
   13.7750  -20.4370  -44.4760 C   0  0  0  0  0  0  0  0  0  0  0  0
   14.6430  -20.8420  -46.9940 C   0  0  0  0  0  0  0  0  0  0  0  0
    3.7640  -18.5080  -53.7130 C   0  0  0  0  0  0  0  0  0  0  0  0
    3.6880  -19.1630  -51.0470 C   0  0  0  0  0  0  0  0  0  0  0  0
    4.6860  -19.4600  -49.0220 N   0  0  0  0  0  0  0  0  0  0  0  0
    3.5060  -19.3410  -49.6810 C   0  0  0  0  0  0  0  0  0  0  0  0
    3.6990  -18.2260  -54.9660 F   0  0  0  0  0  0  0  0  0  0  0  0
  1 26  1  0
  2 10  1  0
  4 12  1  0
  4  3  1  0
  5 11  2  0
  6 23  1  0
  7 16  1  0
  7 19  1  0
 10 23  1  0
 11  8  1  0
 13 16  1  0
 13  8  2  0
 14  7  1  0
 14 12  1  0
 15 18  1  0
 16 19  1  0
 17  6  1  0
 18 26  2  0
 19  9  2  0
 20  1  2  0
 21  3  1  0
 21  2  1  0
 22 21  2  0
 24  2  1  0
 24 17  1  0
 25 15  2  0
 25 20  1  0
 26 28  1  0
 27 13  2  0
 28 27  2  0
 28  5  1  0
 29 25  1  0
M  END
$$$$

     RDKit          3D

 11 11  0  0  0  0  0  0  0  0999 V2000
    6.8480  -19.5850  -49.6090 C   0  0  0  0  0  0  0  0  0  0  0  0
    4.5230  -19.4760  -48.7950 C   0  0  0  0  0  0  0  0  0  0  0  0
    2.8820  -20.0830  -46.2950 N   0  0  0  0  0  0  0  0  0  0  0  0
    4.7280  -19.8300  -45.0930 O   0  0  0  0  0  0  0  0  0  0  0  0
    7.2560  -19.8690  -48.3400 C   0  0  0  0  0  0  0  0  0  0  0  0
    2.2400  -19.0600  -49.6930 N   0  0  0  0  0  0  0  0  0  0  0  0
    3.2770  -19.3290  -49.2880 C   0  0  0  0  0  0  0  0  0  0  0  0
    6.3690  -19.9720  -47.2820 C   0  0  0  0  0  0  0  0  0  0  0  0
    5.4510  -19.4550  -49.8140 C   0  0  0  0  0  0  0  0  0  0  0  0
    5.0020  -19.7220  -47.4120 C   0  0  0  0  0  0  0  0  0  0  0  0
    4.2190  -19.8920  -46.1720 C   0  0  0  0  0  0  0  0  0  0  0  0
  1  5  1  0
  2 10  2  0
  3 11  1  0
  5  8  2  0
  6  7  3  0
  7  2  1  0
  9  1  2  0
  9  2  1  0
 10  8  1  0
 10 11  1  0
 11  4  2  0
M  END
$$$$

     RDKit          3D

 21 24  0  0  0  0  0  0  0  0999 V2000
    5.3810  -19.2280  -49.7530 C   0  0  0  0  0  0  0  0  0  0  0  0
    4.6880  -18.9700  -51.9300 C   0  0  0  0  0  0  0  0  0  0  0  0
    4.7180  -20.0330  -45.4790 N   0  0  0  0  0  0  0  0  0  0  0  0
   10.6050  -19.4450  -46.5180 C   0  0  0  0  0  0  0  0  0  0  0  0
    2.3490  -19.1940  -51.7640 C   0  0  0  0  0  0  0  0  0  0  0  0
   10.1290  -19.8020  -47.7670 C   0  0  0  0  0  0  0  0  0  0  0  0
    5.5880  -19.4750  -48.2150 C   0  0  0  0  0  0  0  0  0  0  0  0
    3.3620  -19.5630  -48.6690 N   0  0  0  0  0  0  0  0  0  0  0  0
   12.0760  -19.3200  -46.3060 C   0  0  0  0  0  0  0  0  0  0  0  0
    5.7540  -18.9810  -51.1720 C   0  0  0  0  0  0  0  0  0  0  0  0
    3.8530  -19.2370  -49.7880 C   0  0  0  0  0  0  0  0  0  0  0  0
    6.5720  -19.6270  -47.2140 C   0  0  0  0  0  0  0  0  0  0  0  0
    4.2370  -19.7320  -46.4520 C   0  0  0  0  0  0  0  0  0  0  0  0
    5.9740  -19.9480  -45.9050 N   0  0  0  0  0  0  0  0  0  0  0  0
    9.8470  -19.1260  -45.4460 C   0  0  0  0  0  0  0  0  0  0  0  0
    8.7610  -19.7710  -47.9640 C   0  0  0  0  0  0  0  0  0  0  0  0
   12.5840  -18.0340  -46.3850 N   0  0  0  0  0  0  0  0  0  0  0  0
    7.9470  -19.5150  -46.9750 C   0  0  0  0  0  0  0  0  0  0  0  0
    4.3490  -19.5950  -47.7290 C   0  0  0  0  0  0  0  0  0  0  0  0
    8.4770  -19.1650  -45.7070 C   0  0  0  0  0  0  0  0  0  0  0  0
    3.5190  -19.1370  -51.1230 N   0  0  0  0  0  0  0  0  0  0  0  0
  1  7  2  0
  2 10  2  0
  2 21  1  0
  4  9  1  0
  4 15  1  0
  5 21  1  0
  6  4  2  0
  7 19  1  0
  7 12  1  0
  8 19  2  0
 10  1  1  0
 11  1  1  0
 11  8  2  0
 12 18  1  0
 12 14  2  0
 13  3  1  0
 14  3  1  0
 16  6  1  0
 16 18  2  0
 17  9  1  0
 18 20  1  0
 19 13  1  0
 20 15  2  0
 21 11  1  0
M  END
$$$$

     RDKit          3D

 38 42  0  0  0  0  0  0  0  0999 V2000
   10.4850  -19.7090  -48.1130 C   0  0  0  0  0  0  0  0  0  0  0  0
    5.0910  -19.2380  -44.9060 N   0  0  0  0  0  0  0  0  0  0  0  0
    5.7930  -19.8170  -52.7600 C   0  0  0  0  0  0  0  0  0  0  0  0
   12.2220  -19.4660  -46.2550 C   0  0  0  0  0  0  0  0  0  0  0  0
    4.6330  -19.3030  -51.8950 N   0  0  0  0  0  0  0  0  0  0  0  0
   11.9790  -19.4070  -44.7420 C   0  0  0  0  0  0  0  0  0  0  0  0
    3.7660  -19.1900  -44.3860 C   0  0  0  0  0  0  0  0  0  0  0  0
    5.5880  -19.6090  -54.1660 C   0  0  0  0  0  0  0  0  0  0  0  0
    5.2710  -18.6200  -46.0160 O   0  0  0  0  0  0  0  0  0  0  0  0
    2.0040  -19.6750  -49.7110 C   0  0  0  0  0  0  0  0  0  0  0  0
    7.8160  -18.6150  -50.4510 C   0  0  0  0  0  0  0  0  0  0  0  0
   11.1270  -19.3460  -49.0190 O   0  0  0  0  0  0  0  0  0  0  0  0
    0.2800  -19.8270  -49.7820 C   0  0  0  0  0  0  0  0  0  0  0  0
   10.7120  -19.9060  -46.8160 O   0  0  0  0  0  0  0  0  0  0  0  0
    7.5150  -19.2330  -46.3190 C   0  0  0  0  0  0  0  0  0  0  0  0
    2.9610  -19.9880  -45.2110 N   0  0  0  0  0  0  0  0  0  0  0  0
    6.2150  -19.1840  -46.9800 C   0  0  0  0  0  0  0  0  0  0  0  0
    2.6930  -19.5440  -51.0550 C   0  0  0  0  0  0  0  0  0  0  0  0
    4.1270  -19.6030  -49.6880 O   0  0  0  0  0  0  0  0  0  0  0  0
   12.5620  -18.3430  -46.8160 C   0  0  0  0  0  0  0  0  0  0  0  0
    4.6240  -18.1090  -52.6870 C   0  0  0  0  0  0  0  0  0  0  0  0
   13.2920  -20.4660  -46.9070 C   0  0  0  0  0  0  0  0  0  0  0  0
    1.5480  -20.0640  -46.9790 C   0  0  0  0  0  0  0  0  0  0  0  0
    0.4240  -18.9710  -52.2340 C   0  0  0  0  0  0  0  0  0  0  0  0
    5.1190  -18.5110  -54.8150 F   0  0  0  0  0  0  0  0  0  0  0  0
    7.1870  -18.9020  -54.3090 C   0  0  0  0  0  0  0  0  0  0  0  0
    3.0110  -20.0080  -46.5550 C   0  0  0  0  0  0  0  0  0  0  0  0
    8.8810  -19.9720  -48.3710 C   0  0  0  0  0  0  0  0  0  0  0  0
    3.1880  -19.7330  -48.7970 C   0  0  0  0  0  0  0  0  0  0  0  0
    1.9880  -19.2070  -52.1430 C   0  0  0  0  0  0  0  0  0  0  0  0
    5.2970  -20.1610  -47.6450 C   0  0  0  0  0  0  0  0  0  0  0  0
   -0.1500  -19.6670  -51.0990 C   0  0  0  0  0  0  0  0  0  0  0  0
    5.5850  -18.4070  -53.7250 C   0  0  0  0  0  0  0  0  0  0  0  0
    3.9320  -19.8500  -47.4460 C   0  0  0  0  0  0  0  0  0  0  0  0
    8.3650  -20.3610  -46.9660 C   0  0  0  0  0  0  0  0  0  0  0  0
    7.9960  -18.7860  -49.0310 C   0  0  0  0  0  0  0  0  0  0  0  0
    4.1540  -19.4620  -50.8510 C   0  0  0  0  0  0  0  0  0  0  0  0
    0.5480  -18.3520  -53.5640 F   0  0  0  0  0  0  0  0  0  0  0  0
  1 14  1  0
  2  7  1  0
  3  5  1  0
  4  6  1  0
  5 37  1  0
  8 26  1  0
  8 33  1  0
  8  3  1  0
  9  2  1  0
 10 29  2  0
 11 36  1  0
 12  1  2  0
 13 10  1  0
 14  4  1  0
 16  7  1  0
 17 15  1  0
 17  9  1  0
 18 37  2  0
 18 10  1  0
 19 29  1  0
 20  4  1  0
 21  5  1  0
 22  4  1  0
 23 27  1  0
 24 38  1  0
 24 30  1  0
 24 32  1  0
 27 16  2  3
 28 36  1  0
 28  1  1  0
 28 35  1  0
 30 18  1  0
 31 34  1  0
 31 17  1  0
 32 13  1  0
 33 25  1  0
 33  3  1  0
 33 21  1  0
 34 29  1  0
 34 27  1  0
 35 15  1  0
 37 19  1  0
M  END
$$$$

     RDKit          3D

 19 20  0  0  0  0  0  0  0  0999 V2000
    6.4950  -19.7900  -46.1000 C   0  0  0  0  0  0  0  0  0  0  0  0
    8.5930  -20.6100  -48.9310 O   0  0  0  0  0  0  0  0  0  0  0  0
    6.8310  -19.0230  -48.2900 C   0  0  0  0  0  0  0  0  0  0  0  0
    4.5550  -19.2320  -47.9880 C   0  0  0  0  0  0  0  0  0  0  0  0
    4.9020  -18.9860  -49.3290 C   0  0  0  0  0  0  0  0  0  0  0  0
    9.8920  -18.9620  -45.6030 C   0  0  0  0  0  0  0  0  0  0  0  0
    6.2280  -18.7410  -49.3690 O   0  0  0  0  0  0  0  0  0  0  0  0
    2.9110  -19.7340  -50.5520 C   0  0  0  0  0  0  0  0  0  0  0  0
    8.2510  -19.3860  -48.1840 C   0  0  0  0  0  0  0  0  0  0  0  0
    7.5320  -19.0390  -45.2670 C   0  0  0  0  0  0  0  0  0  0  0  0
    2.1960  -19.2980  -48.0200 O   0  0  0  0  0  0  0  0  0  0  0  0
    3.0590  -19.8700  -46.2510 O   0  0  0  0  0  0  0  0  0  0  0  0
    2.0870  -19.1240  -51.5880 C   0  0  0  0  0  0  0  0  0  0  0  0
   10.6490  -19.6670  -47.7030 C   0  0  0  0  0  0  0  0  0  0  0  0
    8.8110  -19.4920  -44.8030 C   0  0  0  0  0  0  0  0  0  0  0  0
    3.1700  -19.4900  -47.4010 C   0  0  0  0  0  0  0  0  0  0  0  0
    9.4170  -19.1870  -47.1310 N   0  0  0  0  0  0  0  0  0  0  0  0
    5.7960  -19.3010  -47.3120 C   0  0  0  0  0  0  0  0  0  0  0  0
    4.2920  -18.8880  -50.6220 C   0  0  0  0  0  0  0  0  0  0  0  0
  1 10  1  0
  2  9  2  0
  3  9  1  0
  3 18  2  0
  4 16  1  0
  4 18  1  0
  5  4  2  0
  6 15  1  0
  7  5  1  0
  7  3  1  0
  9 17  1  0
 10 15  1  0
 11 16  2  0
 13  8  1  0
 14 17  1  0
 16 12  1  0
 17  6  1  0
 18  1  1  0
 19  8  1  0
 19  5  1  0
M  END
$$$$

     RDKit          3D

 10 10  0  0  0  0  0  0  0  0999 V2000
    7.2150  -20.2690  -48.3380 C   0  0  0  0  0  0  0  0  0  0  0  0
    5.9780  -19.7550  -50.2760 O   0  0  0  0  0  0  0  0  0  0  0  0
    3.4230  -19.5550  -48.9040 O   0  0  0  0  0  0  0  0  0  0  0  0
    3.7260  -20.3710  -46.4580 O   0  0  0  0  0  0  0  0  0  0  0  0
    5.0490  -20.1620  -51.2760 C   0  0  0  0  0  0  0  0  0  0  0  0
    7.3510  -19.1110  -46.9560 S   0  0  0  0  0  0  0  0  0  0  0  0
    4.6390  -19.3020  -46.8330 C   0  0  0  0  0  0  0  0  0  0  0  0
    5.9240  -19.4320  -46.0140 C   0  0  0  0  0  0  0  0  0  0  0  0
    5.7900  -20.2670  -48.9460 C   0  0  0  0  0  0  0  0  0  0  0  0
    4.7680  -19.3260  -48.2650 C   0  0  0  0  0  0  0  0  0  0  0  0
  1  6  1  0
  5  2  1  0
  6  8  1  0
  7  4  1  0
  7  8  1  0
  9  2  1  0
  9  1  1  0
  9 10  1  0
 10  3  1  0
 10  7  1  0
M  END
$$$$

     RDKit          3D

 20 23  0  0  0  0  0  0  0  0999 V2000
    2.1120  -20.2480  -47.2260 O   0  0  0  0  0  0  0  0  0  0  0  0
    1.7670  -19.3490  -50.6660 C   0  0  0  0  0  0  0  0  0  0  0  0
    2.7460  -18.6020  -55.3970 C   0  0  0  0  0  0  0  0  0  0  0  0
    2.0380  -18.3230  -53.8880 S   0  0  0  0  0  0  0  0  0  0  0  0
    4.1910  -19.6760  -50.2400 C   0  0  0  0  0  0  0  0  0  0  0  0
    5.0150  -20.7040  -53.1020 C   0  0  0  0  0  0  0  0  0  0  0  0
    3.6040  -20.2400  -53.5390 C   0  0  0  0  0  0  0  0  0  0  0  0
    1.9860  -18.0920  -56.6080 C   0  0  0  0  0  0  0  0  0  0  0  0
    0.7300  -20.5160  -47.3090 C   0  0  0  0  0  0  0  0  0  0  0  0
    2.4270  -19.4000  -56.4090 C   0  0  0  0  0  0  0  0  0  0  0  0
    4.0400  -19.8410  -48.8540 C   0  0  0  0  0  0  0  0  0  0  0  0
    2.0130  -17.1260  -53.9080 O   0  0  0  0  0  0  0  0  0  0  0  0
    2.7320  -19.9400  -48.3960 C   0  0  0  0  0  0  0  0  0  0  0  0
    0.7910  -18.3140  -53.0460 O   0  0  0  0  0  0  0  0  0  0  0  0
    3.0970  -18.9920  -52.8430 N   0  0  0  0  0  0  0  0  0  0  0  0
    1.9580  -18.0480  -58.4060 C   0  0  0  0  0  0  0  0  0  0  0  0
    0.4930  -20.1900  -48.6730 O   0  0  0  0  0  0  0  0  0  0  0  0
    1.6350  -19.7990  -49.3010 C   0  0  0  0  0  0  0  0  0  0  0  0
    4.7340  -20.2420  -54.4750 C   0  0  0  0  0  0  0  0  0  0  0  0
    3.0750  -19.2560  -51.2070 C   0  0  0  0  0  0  0  0  0  0  0  0
  2 18  1  0
  3  4  1  0
  4 14  2  0
  4 15  1  0
  5 11  2  0
  7  6  1  0
  7 15  1  0
  8 16  1  0
  8 10  1  0
  8  3  1  0
  9  1  1  0
 10  3  1  0
 11 13  1  0
 12  4  2  0
 13  1  1  0
 15 20  1  0
 17  9  1  0
 18 17  1  0
 18 13  2  0
 19  7  1  0
 19  6  1  0
 20  2  2  0
 20  5  1  0
M  END
$$$$

     RDKit          3D

 10 11  0  0  0  0  0  0  0  0999 V2000
    3.5790  -18.3160  -48.8300 O   0  0  0  0  0  0  0  0  0  0  0  0
    3.7200  -20.3080  -50.4350 C   0  0  0  0  0  0  0  0  0  0  0  0
    5.3280  -20.0250  -50.9460 S   0  0  0  0  0  0  0  0  0  0  0  0
    3.8910  -19.2340  -47.9220 C   0  0  0  0  0  0  0  0  0  0  0  0
    2.9510  -19.3400  -49.9020 C   0  0  0  0  0  0  0  0  0  0  0  0
    7.0440  -18.3510  -49.1420 C   0  0  0  0  0  0  0  0  0  0  0  0
    5.3530  -19.1710  -48.3740 C   0  0  0  0  0  0  0  0  0  0  0  0
    6.3730  -19.9680  -49.2280 C   0  0  0  0  0  0  0  0  0  0  0  0
    6.2530  -19.6280  -46.8820 C   0  0  0  0  0  0  0  0  0  0  0  0
    5.8910  -17.9870  -48.5070 C   0  0  0  0  0  0  0  0  0  0  0  0
  1  4  1  0
  2  5  1  0
  3  2  1  0
  3  8  1  0
  5  1  1  0
  6 10  1  0
  7  4  1  0
  7  9  1  0
  8  6  1  0
  8  7  1  0
 10  7  1  0
M  END
$$$$

     RDKit          3D

 21 24  0  0  0  0  0  0  0  0999 V2000
    8.4030  -19.5020  -45.6100 C   0  0  0  0  0  0  0  0  0  0  0  0
    3.5910  -19.0740  -52.3700 C   0  0  0  0  0  0  0  0  0  0  0  0
    6.2270  -19.5950  -46.2070 C   0  0  0  0  0  0  0  0  0  0  0  0
    9.5250  -18.6010  -47.8270 C   0  0  0  0  0  0  0  0  0  0  0  0
    6.0980  -19.3670  -48.4710 C   0  0  0  0  0  0  0  0  0  0  0  0
    4.4390  -18.1680  -53.1400 C   0  0  0  0  0  0  0  0  0  0  0  0
   10.9850  -18.6940  -47.2410 C   0  0  0  0  0  0  0  0  0  0  0  0
    9.7920  -19.7430  -44.9340 C   0  0  0  0  0  0  0  0  0  0  0  0
    6.0960  -19.2640  -50.1730 S   0  0  0  0  0  0  0  0  0  0  0  0
    8.3690  -19.1070  -46.9870 C   0  0  0  0  0  0  0  0  0  0  0  0
    3.5670  -19.1520  -51.0310 N   0  0  0  0  0  0  0  0  0  0  0  0
    4.4450  -19.2030  -50.0520 C   0  0  0  0  0  0  0  0  0  0  0  0
   11.0060  -19.3640  -45.7580 C   0  0  0  0  0  0  0  0  0  0  0  0
    2.7880  -19.7860  -53.0510 O   0  0  0  0  0  0  0  0  0  0  0  0
    6.9750  -19.3720  -47.4140 C   0  0  0  0  0  0  0  0  0  0  0  0
    4.8110  -19.4140  -47.8100 C   0  0  0  0  0  0  0  0  0  0  0  0
    9.6420  -19.3260  -49.2140 C   0  0  0  0  0  0  0  0  0  0  0  0
    2.3920  -19.3420  -48.5030 C   0  0  0  0  0  0  0  0  0  0  0  0
    4.8390  -19.5830  -46.4310 N   0  0  0  0  0  0  0  0  0  0  0  0
    7.0970  -19.7190  -45.1080 N   0  0  0  0  0  0  0  0  0  0  0  0
    3.8660  -19.2940  -48.6980 C   0  0  0  0  0  0  0  0  0  0  0  0
  1 20  2  0
  1  8  1  0
  2 11  1  0
  3 20  2  0
  4 17  1  0
  4  7  1  0
  4 10  1  0
  5 16  1  0
  5 15  2  0
  6  2  1  0
  7 13  1  0
  9 12  1  0
  9  5  1  0
 10 15  1  0
 10  1  1  0
 11 12  1  0
 12 21  2  0
 13  8  2  0
 14  2  2  0
 15  3  1  0
 16 19  2  0
 19  3  2  0
 21 18  1  0
 21 16  1  0
M  END
$$$$

     RDKit          3D

 13 14  0  0  0  0  0  0  0  0999 V2000
    4.8620  -19.5800  -50.9120 C   0  0  0  0  0  0  0  0  0  0  0  0
    5.6320  -20.0520  -49.8440 N   0  0  0  0  0  0  0  0  0  0  0  0
    5.4270  -19.7870  -48.4390 C   0  0  0  0  0  0  0  0  0  0  0  0
    6.6240  -19.5100  -46.3480 C   0  0  0  0  0  0  0  0  0  0  0  0
    4.3140  -19.7320  -46.3190 C   0  0  0  0  0  0  0  0  0  0  0  0
    5.2440  -19.6390  -52.0180 O   0  0  0  0  0  0  0  0  0  0  0  0
    5.4470  -19.6150  -45.6340 N   0  0  0  0  0  0  0  0  0  0  0  0
    6.5910  -19.6330  -47.7090 C   0  0  0  0  0  0  0  0  0  0  0  0
    3.4800  -19.2460  -50.5540 C   0  0  0  0  0  0  0  0  0  0  0  0
    7.6830  -19.2320  -45.6710 O   0  0  0  0  0  0  0  0  0  0  0  0
    4.2030  -19.7160  -47.7160 C   0  0  0  0  0  0  0  0  0  0  0  0
    2.6920  -19.3390  -49.5010 C   0  0  0  0  0  0  0  0  0  0  0  0
    2.9210  -19.6090  -48.2210 N   0  0  0  0  0  0  0  0  0  0  0  0
  1  9  1  0
  1  2  2  0
  2  3  2  0
  3 11  1  0
  3  8  1  0
  4 10  2  0
  4  7  2  0
  5  7  1  0
  6  1  2  0
  8  4  1  0
  9 12  2  0
 11  5  1  0
 12 13  1  0
 13 11  2  0
M  END
$$$$

     RDKit          3D

 11 11  0  0  0  0  0  0  0  0999 V2000
    4.5650  -19.9790  -47.4350 C   0  0  0  0  0  0  0  0  0  0  0  0
    4.9810  -19.1440  -50.8390 C   0  0  0  0  0  0  0  0  0  0  0  0
    3.5410  -19.3470  -51.1880 C   0  0  0  0  0  0  0  0  0  0  0  0
    5.9440  -18.8490  -51.6000 O   0  0  0  0  0  0  0  0  0  0  0  0
    5.3290  -19.8890  -46.9400 N   0  0  0  0  0  0  0  0  0  0  0  0
    3.5090  -20.1360  -46.5140 N   0  0  0  0  0  0  0  0  0  0  0  0
    6.5050  -19.2870  -47.2700 C   0  0  0  0  0  0  0  0  0  0  0  0
    4.4710  -19.9860  -48.7300 N   0  0  0  0  0  0  0  0  0  0  0  0
    6.7220  -18.6520  -48.8080 S   0  0  0  0  0  0  0  0  0  0  0  0
    7.6600  -18.9200  -46.0700 S   0  0  0  0  0  0  0  0  0  0  0  0
    5.2280  -19.3210  -49.4760 C   0  0  0  0  0  0  0  0  0  0  0  0
  1  5  2  0
  1  6  1  0
  2 11  1  0
  3  2  1  0
  4  2  2  0
  7  5  2  0
  7 10  2  0
  8  1  2  0
  9  7  1  0
 11  9  1  0
 11  8  2  0
M  END
$$$$

     RDKit          3D

 12 13  0  0  0  0  0  0  0  0999 V2000
    5.5850  -19.8990  -45.5980 O   0  0  0  0  0  0  0  0  0  0  0  0
    7.9780  -18.9140  -46.9820 C   0  0  0  0  0  0  0  0  0  0  0  0
    3.5030  -19.7220  -46.4460 N   0  0  0  0  0  0  0  0  0  0  0  0
    3.1630  -19.1880  -48.7360 C   0  0  0  0  0  0  0  0  0  0  0  0
    9.1650  -19.2570  -47.9210 C   0  0  0  0  0  0  0  0  0  0  0  0
    8.7170  -20.4310  -48.6870 O   0  0  0  0  0  0  0  0  0  0  0  0
    7.3190  -20.2660  -48.9220 C   0  0  0  0  0  0  0  0  0  0  0  0
    4.8230  -19.6300  -46.5730 C   0  0  0  0  0  0  0  0  0  0  0  0
    5.3950  -19.1430  -47.8070 C   0  0  0  0  0  0  0  0  0  0  0  0
    4.5520  -19.0300  -48.9520 C   0  0  0  0  0  0  0  0  0  0  0  0
    6.8240  -19.0450  -48.0260 C   0  0  0  0  0  0  0  0  0  0  0  0
    2.6890  -19.5210  -47.5130 C   0  0  0  0  0  0  0  0  0  0  0  0
  4 12  2  0
  5  2  1  0
  6  5  1  0
  7  6  1  0
  7 11  1  0
  8  3  2  0
  8  1  2  0
  9  8  1  0
 10  4  1  0
 10  9  2  0
 11  9  1  0
 11  2  1  0
 12  3  1  0
M  END
$$$$

     RDKit          3D

 11 11  0  0  0  0  0  0  0  0999 V2000
    5.7610  -19.4750  -48.8210 C   0  0  0  0  0  0  0  0  0  0  0  0
    4.7830  -19.1690  -49.6190 C   0  0  0  0  0  0  0  0  0  0  0  0
    4.1110  -19.7690  -46.9970 C   0  0  0  0  0  0  0  0  0  0  0  0
    3.9140  -20.2090  -45.7540 O   0  0  0  0  0  0  0  0  0  0  0  0
    8.0240  -20.6500  -48.9480 N   0  0  0  0  0  0  0  0  0  0  0  0
    7.2750  -19.4690  -49.0590 C   0  0  0  0  0  0  0  0  0  0  0  0
    7.9250  -18.3940  -49.2200 O   0  0  0  0  0  0  0  0  0  0  0  0
    3.1100  -19.4520  -47.8500 C   0  0  0  0  0  0  0  0  0  0  0  0
    5.4330  -19.8460  -47.3910 C   0  0  0  0  0  0  0  0  0  0  0  0
    3.4570  -19.1200  -49.2210 C   0  0  0  0  0  0  0  0  0  0  0  0
    6.3780  -20.1450  -46.5210 O   0  0  0  0  0  0  0  0  0  0  0  0
  1  9  1  0
  2 10  1  0
  2  1  2  0
  3  4  1  0
  6  5  1  0
  6  1  1  0
  7  6  2  0
  8  3  1  0
  9  3  2  0
  9 11  1  0
 10  8  2  0
M  END
$$$$

     RDKit          3D

 24 28  0  0  0  0  0  0  0  0999 V2000
    2.3690  -20.2690  -46.2440 C   0  0  0  0  0  0  0  0  0  0  0  0
    9.7050  -19.4210  -49.5450 N   0  0  0  0  0  0  0  0  0  0  0  0
    7.0410  -19.6200  -46.9050 C   0  0  0  0  0  0  0  0  0  0  0  0
    8.1120  -19.3210  -46.3380 O   0  0  0  0  0  0  0  0  0  0  0  0
    2.2590  -19.4360  -48.5840 C   0  0  0  0  0  0  0  0  0  0  0  0
    5.8840  -18.9440  -46.9090 O   0  0  0  0  0  0  0  0  0  0  0  0
    3.4090  -18.5230  -53.8420 C   0  0  0  0  0  0  0  0  0  0  0  0
    4.5220  -19.5160  -45.3770 O   0  0  0  0  0  0  0  0  0  0  0  0
    5.6600  -18.8160  -49.7290 S   0  0  0  0  0  0  0  0  0  0  0  0
    4.5630  -19.1820  -47.5730 C   0  0  0  0  0  0  0  0  0  0  0  0
    2.1760  -19.3060  -47.3080 C   0  0  0  0  0  0  0  0  0  0  0  0
    3.4170  -19.1290  -50.0480 N   0  0  0  0  0  0  0  0  0  0  0  0
   11.5590  -18.6560  -50.8140 C   0  0  0  0  0  0  0  0  0  0  0  0
    3.8100  -19.3060  -49.0320 C   0  0  0  0  0  0  0  0  0  0  0  0
    8.9030  -19.8100  -48.2770 C   0  0  0  0  0  0  0  0  0  0  0  0
   11.7840  -19.0950  -48.3480 C   0  0  0  0  0  0  0  0  0  0  0  0
    5.7820  -19.4350  -53.1100 C   0  0  0  0  0  0  0  0  0  0  0  0
    7.9010  -18.9600  -47.8240 C   0  0  0  0  0  0  0  0  0  0  0  0
    4.1130  -19.3930  -51.7470 C   0  0  0  0  0  0  0  0  0  0  0  0
    4.9130  -18.4510  -54.5740 S   0  0  0  0  0  0  0  0  0  0  0  0
    5.5180  -18.9480  -51.8200 C   0  0  0  0  0  0  0  0  0  0  0  0
   11.0720  -19.0770  -49.4970 C   0  0  0  0  0  0  0  0  0  0  0  0
    3.7000  -19.8650  -46.5330 C   0  0  0  0  0  0  0  0  0  0  0  0
    3.0590  -18.7530  -52.6040 C   0  0  0  0  0  0  0  0  0  0  0  0
  2 22  2  3
  2 15  1  0
  3  6  1  0
  3  4  1  0
  7 24  1  0
  9 14  1  0
 10  6  1  0
 10 23  1  0
 11  5  1  0
 11 23  1  0
 11  1  1  0
 12 14  1  0
 13 22  1  0
 14  5  1  0
 14 10  1  0
 18 15  1  0
 18  3  1  0
 18  4  1  0
 19 24  1  0
 19 12  1  0
 20  7  1  0
 20 17  1  0
 21 17  1  0
 21 19  1  0
 21  9  1  0
 22 16  1  0
 23  1  1  0
 23  8  1  0
M  END
$$$$

     RDKit          3D

  7  7  0  0  0  0  0  0  0  0999 V2000
    4.0340  -19.1720  -48.6780 C   0  0  0  0  0  0  0  0  0  0  0  0
    5.7910  -19.1650  -46.9820 C   0  0  0  0  0  0  0  0  0  0  0  0
    5.2390  -19.9370  -49.1990 C   0  0  0  0  0  0  0  0  0  0  0  0
    7.6840  -19.4570  -48.7770 C   0  0  0  0  0  0  0  0  0  0  0  0
    4.3060  -19.1030  -47.1240 C   0  0  0  0  0  0  0  0  0  0  0  0
    6.4310  -19.7970  -48.1850 C   0  0  0  0  0  0  0  0  0  0  0  0
    8.5880  -20.5910  -48.7850 O   0  0  0  0  0  0  0  0  0  0  0  0
  1  5  1  0
  3  1  1  0
  3  6  1  0
  4  6  1  0
  5  2  1  0
  6  2  1  0
  7  4  1  0
M  END
$$$$

     RDKit          3D

  6  5  0  0  0  0  0  0  0  0999 V2000
    6.0360  -18.1680  -48.3230 N   0  0  0  0  0  0  0  0  0  0  0  0
    3.9590  -19.5420  -47.2010 F   0  0  0  0  0  0  0  0  0  0  0  0
    4.7160  -20.0900  -47.8990 C   0  0  0  0  0  0  0  0  0  0  0  0
    6.3910  -19.8850  -46.2510 O   0  0  0  0  0  0  0  0  0  0  0  0
    6.0810  -19.5930  -47.6650 C   0  0  0  0  0  0  0  0  0  0  0  0
    7.3680  -20.4010  -48.6360 S   0  0  0  0  0  0  0  0  0  0  0  0
  1  5  1  0
  3  5  1  0
  3  2  1  0
  5  6  1  0
  5  4  1  0
M  END
$$$$

     RDKit          3D

 11 12  0  0  0  0  0  0  0  0999 V2000
    4.9300  -19.5960  -48.0520 C   0  0  0  0  0  0  0  0  0  0  0  0
    6.3530  -19.8620  -47.9460 N   0  0  0  0  0  0  0  0  0  0  0  0
    7.0880  -19.7250  -48.9870 C   0  0  0  0  0  0  0  0  0  0  0  0
    8.4010  -20.2710  -49.0310 N   0  0  0  0  0  0  0  0  0  0  0  0
    6.7090  -18.9100  -50.2170 C   0  0  0  0  0  0  0  0  0  0  0  0
    4.4030  -19.0580  -49.2760 C   0  0  0  0  0  0  0  0  0  0  0  0
    2.5870  -19.3780  -47.5980 C   0  0  0  0  0  0  0  0  0  0  0  0
    4.3470  -20.5510  -45.9160 O   0  0  0  0  0  0  0  0  0  0  0  0
    3.8800  -19.9640  -47.1210 C   0  0  0  0  0  0  0  0  0  0  0  0
    2.7270  -19.1550  -49.2240 S   0  0  0  0  0  0  0  0  0  0  0  0
    5.1970  -18.6330  -50.4660 C   0  0  0  0  0  0  0  0  0  0  0  0
  1  2  2  0
  1  9  1  0
  3  2  2  0
  4  3  1  0
  5  3  1  0
  6 10  1  0
  6  1  1  0
  7  9  1  0
  9  8  1  0
 10  7  1  0
 11  5  1  0
 11  6  2  0
M  END
$$$$

     RDKit          3D

 21 23  0  0  0  0  0  0  0  0999 V2000
    3.5050  -19.2350  -51.0310 C   0  0  0  0  0  0  0  0  0  0  0  0
   11.1550  -18.1220  -46.1170 C   0  0  0  0  0  0  0  0  0  0  0  0
   10.7270  -18.8500  -44.8750 C   0  0  0  0  0  0  0  0  0  0  0  0
    2.7770  -18.9120  -52.1840 N   0  0  0  0  0  0  0  0  0  0  0  0
    3.3920  -19.4440  -48.6400 C   0  0  0  0  0  0  0  0  0  0  0  0
    4.8230  -19.4040  -48.6780 C   0  0  0  0  0  0  0  0  0  0  0  0
    2.6700  -19.4560  -47.6810 O   0  0  0  0  0  0  0  0  0  0  0  0
    8.5090  -19.1660  -45.8150 C   0  0  0  0  0  0  0  0  0  0  0  0
    5.8380  -19.4260  -49.5150 C   0  0  0  0  0  0  0  0  0  0  0  0
    3.3260  -19.3470  -49.8600 N   0  0  0  0  0  0  0  0  0  0  0  0
    6.0010  -19.5700  -50.8310 N   0  0  0  0  0  0  0  0  0  0  0  0
    3.5190  -19.0110  -53.2310 N   0  0  0  0  0  0  0  0  0  0  0  0
    5.2810  -19.1560  -47.2440 N   0  0  0  0  0  0  0  0  0  0  0  0
    9.3280  -19.2490  -44.7240 C   0  0  0  0  0  0  0  0  0  0  0  0
    4.8490  -19.4330  -51.6060 C   0  0  0  0  0  0  0  0  0  0  0  0
    7.1200  -19.5780  -45.6160 C   0  0  0  0  0  0  0  0  0  0  0  0
    1.3520  -18.5470  -52.0930 C   0  0  0  0  0  0  0  0  0  0  0  0
    8.9380  -18.7070  -47.0620 C   0  0  0  0  0  0  0  0  0  0  0  0
    6.3160  -20.0490  -46.8060 C   0  0  0  0  0  0  0  0  0  0  0  0
   10.2490  -18.2300  -47.1720 C   0  0  0  0  0  0  0  0  0  0  0  0
    4.7580  -19.4220  -52.9360 N   0  0  0  0  0  0  0  0  0  0  0  0
  1 10  2  0
  2  3  1  0
  3 14  2  0
  4 17  1  0
  4  1  1  0
  5  7  2  0
  6  5  1  0
  6 13  1  0
  8 16  1  0
  8 14  1  0
  9  6  2  0
 10  5  2  0
 11  9  1  0
 12 21  1  0
 12  4  1  0
 13 19  1  0
 15  1  1  0
 15 11  2  0
 18  8  2  0
 19 16  1  0
 20 18  1  0
 20  2  2  0
 21 15  2  0
M  END
$$$$

     RDKit          3D

 27 31  0  0  0  0  0  0  0  0999 V2000
    5.4950  -20.4060  -51.2770 O   0  0  0  0  0  0  0  0  0  0  0  0
    5.3800  -18.3270  -50.1900 C   0  0  0  0  0  0  0  0  0  0  0  0
   11.4960  -17.0320  -44.6750 O   0  0  0  0  0  0  0  0  0  0  0  0
    6.7520  -19.2030  -47.9900 C   0  0  0  0  0  0  0  0  0  0  0  0
    8.0660  -19.2080  -48.7510 C   0  0  0  0  0  0  0  0  0  0  0  0
   10.4710  -20.3770  -46.7970 C   0  0  0  0  0  0  0  0  0  0  0  0
    0.8980  -19.8480  -47.9250 O   0  0  0  0  0  0  0  0  0  0  0  0
   12.1030  -19.3920  -43.5590 O   0  0  0  0  0  0  0  0  0  0  0  0
    1.9970  -19.7080  -47.4860 C   0  0  0  0  0  0  0  0  0  0  0  0
    3.4720  -19.6910  -45.6380 N   0  0  0  0  0  0  0  0  0  0  0  0
   11.4950  -20.5440  -45.7310 C   0  0  0  0  0  0  0  0  0  0  0  0
    3.0700  -19.2720  -48.3250 C   0  0  0  0  0  0  0  0  0  0  0  0
   11.2190  -21.5260  -44.6510 O   0  0  0  0  0  0  0  0  0  0  0  0
    5.5090  -18.8040  -48.7590 C   0  0  0  0  0  0  0  0  0  0  0  0
    4.9520  -19.3730  -51.1040 C   0  0  0  0  0  0  0  0  0  0  0  0
    9.8950  -19.0790  -47.2210 C   0  0  0  0  0  0  0  0  0  0  0  0
    4.5450  -19.4780  -46.3650 C   0  0  0  0  0  0  0  0  0  0  0  0
   11.7050  -19.2480  -44.9190 C   0  0  0  0  0  0  0  0  0  0  0  0
    5.8660  -19.5330  -45.7730 C   0  0  0  0  0  0  0  0  0  0  0  0
    8.5500  -19.1180  -47.3800 C   0  0  0  0  0  0  0  0  0  0  0  0
   10.3460  -17.9740  -46.4700 C   0  0  0  0  0  0  0  0  0  0  0  0
    2.8190  -18.8790  -49.7350 C   0  0  0  0  0  0  0  0  0  0  0  0
    2.2460  -19.7550  -46.1000 N   0  0  0  0  0  0  0  0  0  0  0  0
    6.9390  -19.4360  -46.6170 C   0  0  0  0  0  0  0  0  0  0  0  0
   10.9680  -18.1840  -45.1480 C   0  0  0  0  0  0  0  0  0  0  0  0
    3.3910  -18.9860  -51.1530 C   0  0  0  0  0  0  0  0  0  0  0  0
    4.4010  -19.1960  -47.8130 C   0  0  0  0  0  0  0  0  0  0  0  0
  1 15  2  0
  4 24  2  0
  5  4  1  0
  6 11  1  0
  7  9  2  0
  9 23  2  0
 11 18  1  0
 11 13  1  0
 12 27  2  0
 12  9  1  0
 14  2  1  0
 14  4  1  0
 14 27  1  0
 15  2  1  0
 16  6  1  0
 16 21  1  0
 17 19  1  0
 17 10  2  0
 18  8  1  0
 20  5  1  0
 20 16  1  0
 20 24  1  0
 21 25  1  0
 22 12  1  0
 23 10  1  0
 24 19  1  0
 25 18  1  0
 25  3  1  0
 26 15  1  0
 26 22  1  0
 27 17  1  0
M  END
$$$$

     RDKit          3D

 18 20  0  0  0  0  0  0  0  0999 V2000
    2.2450  -19.3780  -48.6380 N   0  0  0  0  0  0  0  0  0  0  0  0
   10.1630  -19.0260  -46.9360 C   0  0  0  0  0  0  0  0  0  0  0  0
    3.9310  -18.9690  -50.2180 N   0  0  0  0  0  0  0  0  0  0  0  0
    2.6420  -19.0980  -49.8550 C   0  0  0  0  0  0  0  0  0  0  0  0
    8.1530  -19.3450  -45.6300 C   0  0  0  0  0  0  0  0  0  0  0  0
    6.1150  -19.1830  -49.5310 O   0  0  0  0  0  0  0  0  0  0  0  0
    4.6470  -19.4370  -47.8850 C   0  0  0  0  0  0  0  0  0  0  0  0
    2.9030  -19.8860  -46.3580 C   0  0  0  0  0  0  0  0  0  0  0  0
   10.4570  -19.2250  -44.4330 C   0  0  0  0  0  0  0  0  0  0  0  0
    9.3990  -19.0520  -48.1250 C   0  0  0  0  0  0  0  0  0  0  0  0
    5.1380  -19.7330  -45.6090 C   0  0  0  0  0  0  0  0  0  0  0  0
    3.1180  -19.6030  -47.6900 C   0  0  0  0  0  0  0  0  0  0  0  0
    9.5540  -19.2020  -45.7070 C   0  0  0  0  0  0  0  0  0  0  0  0
    4.9470  -19.1570  -49.2370 C   0  0  0  0  0  0  0  0  0  0  0  0
    3.8220  -19.9620  -45.3720 N   0  0  0  0  0  0  0  0  0  0  0  0
    5.7540  -19.4950  -46.7910 C   0  0  0  0  0  0  0  0  0  0  0  0
    7.3180  -19.3910  -46.8650 C   0  0  0  0  0  0  0  0  0  0  0  0
    7.9770  -19.2520  -48.0980 C   0  0  0  0  0  0  0  0  0  0  0  0
  1 12  2  0
  2 13  1  0
  3  4  1  0
  3 14  2  0
  4  1  1  0
  6 14  2  0
  7 14  1  0
  7 12  1  0
  7 16  1  0
  8 15  2  0
 10 18  1  0
 10  2  2  0
 11 15  1  0
 12  8  1  0
 13  5  2  0
 13  9  1  0
 16 11  2  0
 17 16  1  0
 17  5  1  0
 18 17  2  0
M  END
$$$$
