
     RDKit          3D

  9  9  0  0  0  0  0  0  0  0999 V2000
  -12.1170   -1.8610   28.8800 O   0  0  0  0  0  0  0  0  0  0  0  0
  -11.1450   -4.6280   29.1420 C   0  0  0  0  0  0  0  0  0  0  0  0
  -10.5890   -3.6430   28.4150 C   0  0  0  0  0  0  0  0  0  0  0  0
   -9.0130   -5.1730   28.3580 C   0  0  0  0  0  0  0  0  0  0  0  0
   -7.9100   -5.7240   28.0210 F   0  0  0  0  0  0  0  0  0  0  0  0
   -9.3360   -4.0570   27.9440 C   0  0  0  0  0  0  0  0  0  0  0  0
  -10.1410   -5.9490   29.4170 S   0  0  0  0  0  0  0  0  0  0  0  0
  -10.6680   -1.4160   27.7710 O   0  0  0  0  0  0  0  0  0  0  0  0
  -11.4620   -2.4470   27.8630 C   0  0  0  0  0  0  0  0  0  0  0  0
  2  7  1  0
  3  2  2  0
  4  7  1  0
  5  4  1  0
  6  4  2  0
  6  3  1  0
  8  9  1  0
  9  3  1  0
  9  1  1  0
M  END
$$$$

     RDKit          3D

 10  9  0  0  0  0  0  0  0  0999 V2000
  -11.3160   -3.5120   27.9750 C   0  0  0  0  0  0  0  0  0  0  0  0
  -17.4340   -5.5250   25.9220 N   0  0  0  0  0  0  0  0  0  0  0  0
  -17.2420   -6.2090   26.9510 O   0  0  0  0  0  0  0  0  0  0  0  0
  -11.5350   -4.8670   27.7280 O   0  0  0  0  0  0  0  0  0  0  0  0
  -16.9170   -4.2910   26.0570 N   0  0  0  0  0  0  0  0  0  0  0  0
  -13.4720   -3.2740   27.0860 C   0  0  0  0  0  0  0  0  0  0  0  0
  -12.7080   -2.9050   28.3000 C   0  0  0  0  0  0  0  0  0  0  0  0
  -15.4790   -4.2260   26.3680 C   0  0  0  0  0  0  0  0  0  0  0  0
  -14.9610   -3.1150   27.1190 C   0  0  0  0  0  0  0  0  0  0  0  0
  -17.9440   -5.9220   24.9250 O   0  0  0  0  0  0  0  0  0  0  0  0
  1  7  1  0
  2  5  1  0
  2  3  2  0
  4  1  1  0
  5  8  1  0
  6  9  1  0
  6  7  1  0
  8  9  1  0
 10  2  2  0
M  END
$$$$

     RDKit          3D

  9  8  0  0  0  0  0  0  0  0999 V2000
   -9.3350   -3.8590   27.5200 O   0  0  0  0  0  0  0  0  0  0  0  0
   -8.0880   -4.3150   27.6930 C   0  0  0  0  0  0  0  0  0  0  0  0
   -6.0350   -7.3740   24.2780 C   0  0  0  0  0  0  0  0  0  0  0  0
   -7.5430   -5.7850   27.2700 C   0  0  0  0  0  0  0  0  0  0  0  0
   -6.7020   -6.2110   24.8930 C   0  0  0  0  0  0  0  0  0  0  0  0
  -10.2600   -3.3070   28.5080 C   0  0  0  0  0  0  0  0  0  0  0  0
  -11.6140   -3.9580   28.6100 C   0  0  0  0  0  0  0  0  0  0  0  0
   -7.6140   -6.4450   26.0090 O   0  0  0  0  0  0  0  0  0  0  0  0
   -5.4770   -8.2180   23.8570 N   0  0  0  0  0  0  0  0  0  0  0  0
  1  2  1  0
  1  6  1  0
  3  5  1  0
  4  2  1  0
  5  8  1  0
  6  7  1  0
  8  4  1  0
  9  3  3  0
M  END
$$$$

     RDKit          3D

  6  5  0  0  0  0  0  0  0  0999 V2000
  -10.1060   -3.8300   28.6380 C   0  0  0  0  0  0  0  0  0  0  0  0
   -9.8010   -6.0590   27.9540 C   0  0  0  0  0  0  0  0  0  0  0  0
  -11.0440   -4.3270   28.4040 O   0  0  0  0  0  0  0  0  0  0  0  0
  -10.2650   -6.1840   26.4030 N   0  0  0  0  0  0  0  0  0  0  0  0
   -9.5990   -5.1420   28.4260 N   0  0  0  0  0  0  0  0  0  0  0  0
   -8.5540   -6.7050   28.2460 O   0  0  0  0  0  0  0  0  0  0  0  0
  2  4  1  0
  2  6  1  0
  2  5  1  0
  3  1  1  0
  5  1  1  0
M  END
$$$$

     RDKit          3D

 15 18  0  0  0  0  0  0  0  0999 V2000
  -10.7310   -7.6830   23.3890 C   0  0  0  0  0  0  0  0  0  0  0  0
   -7.3900   -8.8100   23.6910 C   0  0  0  0  0  0  0  0  0  0  0  0
   -9.8810   -8.1850   23.3410 C   0  0  0  0  0  0  0  0  0  0  0  0
  -11.9890  -10.7920   22.7990 C   0  0  0  0  0  0  0  0  0  0  0  0
   -9.9190   -7.8460   24.7630 C   0  0  0  0  0  0  0  0  0  0  0  0
  -10.5850   -9.3880   22.5580 S   0  0  0  0  0  0  0  0  0  0  0  0
   -9.5170   -7.8230   24.0860 C   0  0  0  0  0  0  0  0  0  0  0  0
  -10.8460   -9.9270   23.9080 C   0  0  0  0  0  0  0  0  0  0  0  0
  -10.9830   -7.9520   24.5010 C   0  0  0  0  0  0  0  0  0  0  0  0
  -12.1360  -10.2220   21.9510 C   0  0  0  0  0  0  0  0  0  0  0  0
  -10.4070   -6.9210   25.7990 S   0  0  0  0  0  0  0  0  0  0  0  0
   -8.4960   -8.3720   23.8710 C   0  0  0  0  0  0  0  0  0  0  0  0
  -12.1040   -8.4850   23.3140 S   0  0  0  0  0  0  0  0  0  0  0  0
  -10.7250   -8.6140   22.5890 C   0  0  0  0  0  0  0  0  0  0  0  0
  -12.1480  -10.0080   23.7270 C   0  0  0  0  0  0  0  0  0  0  0  0
  1  9  1  0
  2 12  3  0
  3  1  1  0
  3  7  1  0
  4 15  1  0
  5 11  1  0
  6 14  1  0
  6  8  1  0
  7  5  1  0
  9  5  1  0
 10  4  1  0
 12  7  1  0
 13 15  1  0
 13  9  1  0
 14 13  1  0
 14  3  1  0
 14  1  1  0
 15  8  1  0
M  END
$$$$

     RDKit          3D

 17 18  0  0  0  0  0  0  0  0999 V2000
   -7.4410   -6.2190   27.4980 O   0  0  0  0  0  0  0  0  0  0  0  0
  -11.8310   -3.1450   30.4830 S   0  0  0  0  0  0  0  0  0  0  0  0
   -5.3460   -9.3920   23.3050 C   0  0  0  0  0  0  0  0  0  0  0  0
   -5.2410   -5.2190   23.6160 O   0  0  0  0  0  0  0  0  0  0  0  0
  -13.3570   -2.1060   28.5810 C   0  0  0  0  0  0  0  0  0  0  0  0
   -6.2330   -5.2810   25.7550 N   0  0  0  0  0  0  0  0  0  0  0  0
   -7.4640   -5.1860   26.4990 C   0  0  0  0  0  0  0  0  0  0  0  0
   -8.7650   -5.8850   28.5730 S   0  0  0  0  0  0  0  0  0  0  0  0
  -13.4790   -2.6010   30.0050 C   0  0  0  0  0  0  0  0  0  0  0  0
   -5.7970   -6.0130   24.6270 C   0  0  0  0  0  0  0  0  0  0  0  0
   -9.7650   -3.5220   29.0280 N   0  0  0  0  0  0  0  0  0  0  0  0
   -5.2270   -7.8780   23.1650 C   0  0  0  0  0  0  0  0  0  0  0  0
   -8.9290   -4.2100   28.1830 C   0  0  0  0  0  0  0  0  0  0  0  0
   -8.1520   -4.0760   27.2150 C   0  0  0  0  0  0  0  0  0  0  0  0
   -5.8540   -7.3930   24.4900 C   0  0  0  0  0  0  0  0  0  0  0  0
  -11.1640   -2.9980   28.8330 C   0  0  0  0  0  0  0  0  0  0  0  0
  -12.4430   -3.0450   27.9310 C   0  0  0  0  0  0  0  0  0  0  0  0
  1  8  1  0
  4 10  2  0
  5  9  1  0
  7  6  1  0
  7 14  1  0
  7  1  1  0
  9  2  1  0
 10  6  1  0
 12  3  1  0
 12 15  1  0
 13  8  1  0
 13 11  1  0
 14 13  2  0
 15 10  1  0
 16 11  1  0
 16  2  1  0
 17  5  1  0
 17 16  1  0
M  END
$$$$

     RDKit          3D

  7  6  0  0  0  0  0  0  0  0999 V2000
   -9.5250   -5.4960   28.3540 O   0  0  0  0  0  0  0  0  0  0  0  0
  -13.9140   -2.5570   28.9030 O   0  0  0  0  0  0  0  0  0  0  0  0
  -11.7770   -3.4420   28.9030 C   0  0  0  0  0  0  0  0  0  0  0  0
   -9.5140   -4.1000   28.3620 C   0  0  0  0  0  0  0  0  0  0  0  0
  -10.8150   -3.8170   27.8500 O   0  0  0  0  0  0  0  0  0  0  0  0
  -12.9740   -3.0510   28.1190 C   0  0  0  0  0  0  0  0  0  0  0  0
  -14.9820   -1.8100   28.3120 C   0  0  0  0  0  0  0  0  0  0  0  0
  1  4  1  0
  5  4  1  0
  5  3  1  0
  6  2  1  0
  6  3  1  0
  7  2  1  0
M  END
$$$$

     RDKit          3D

 19 21  0  0  0  0  0  0  0  0999 V2000
  -11.3200   -5.1170   26.4090 C   0  0  0  0  0  0  0  0  0  0  0  0
   -7.5990   -6.0170   26.8530 C   0  0  0  0  0  0  0  0  0  0  0  0
   -9.2300   -5.9320   25.7470 O   0  0  0  0  0  0  0  0  0  0  0  0
  -10.8180   -7.8570   24.3700 C   0  0  0  0  0  0  0  0  0  0  0  0
  -10.4450   -6.3240   26.0780 C   0  0  0  0  0  0  0  0  0  0  0  0
   -8.9260   -6.5210   26.2890 C   0  0  0  0  0  0  0  0  0  0  0  0
   -9.6930   -7.8910   23.9850 C   0  0  0  0  0  0  0  0  0  0  0  0
  -13.5300   -4.7360   25.7980 C   0  0  0  0  0  0  0  0  0  0  0  0
   -8.2390   -7.6430   24.6550 C   0  0  0  0  0  0  0  0  0  0  0  0
  -12.4060   -3.2430   27.2950 C   0  0  0  0  0  0  0  0  0  0  0  0
   -8.5040   -6.6580   24.8600 C   0  0  0  0  0  0  0  0  0  0  0  0
  -10.9780   -6.7980   24.7410 C   0  0  0  0  0  0  0  0  0  0  0  0
  -12.0690   -8.4780   23.6860 C   0  0  0  0  0  0  0  0  0  0  0  0
  -13.6260   -3.6770   26.7400 C   0  0  0  0  0  0  0  0  0  0  0  0
  -12.4040   -5.4410   25.6760 C   0  0  0  0  0  0  0  0  0  0  0  0
  -15.1090   -2.8800   28.3890 O   0  0  0  0  0  0  0  0  0  0  0  0
  -12.2060   -6.4350   24.7800 O   0  0  0  0  0  0  0  0  0  0  0  0
  -14.7970   -2.8740   26.9810 C   0  0  0  0  0  0  0  0  0  0  0  0
  -11.3950   -4.1590   27.4080 N   0  0  0  0  0  0  0  0  0  0  0  0
  1 19  2  0
  3  6  1  0
  4 13  1  0
  4 12  1  0
  5  3  1  0
  5  1  1  0
  6  2  1  0
  7  4  1  0
  7  9  1  0
  8 14  1  0
  9 11  1  0
 10 19  1  0
 11  6  1  0
 12 17  1  0
 12  5  1  0
 14 18  1  0
 14 10  1  0
 15  8  2  0
 15  1  1  0
 17 15  1  0
 18 16  1  0
M  END
$$$$

     RDKit          3D

 19 19  0  0  0  0  0  0  0  0999 V2000
   -9.0590   -5.2060   27.9760 C   0  0  0  0  0  0  0  0  0  0  0  0
   -6.7020   -7.6030   25.2310 C   0  0  0  0  0  0  0  0  0  0  0  0
   -5.9350   -8.4330   24.5100 C   0  0  0  0  0  0  0  0  0  0  0  0
   -5.6990  -10.0630   23.8380 C   0  0  0  0  0  0  0  0  0  0  0  0
  -11.7250   -3.0370   31.0290 C   0  0  0  0  0  0  0  0  0  0  0  0
   -8.0300   -7.2430   25.0300 C   0  0  0  0  0  0  0  0  0  0  0  0
   -7.4070  -12.1400   23.4970 C   0  0  0  0  0  0  0  0  0  0  0  0
   -7.3200   -9.0830   22.7550 O   0  0  0  0  0  0  0  0  0  0  0  0
  -11.0060   -4.2610   29.0280 C   0  0  0  0  0  0  0  0  0  0  0  0
  -11.1680   -4.1760   30.4050 C   0  0  0  0  0  0  0  0  0  0  0  0
  -12.2850   -2.3840   28.8530 C   0  0  0  0  0  0  0  0  0  0  0  0
  -11.5320   -3.3150   28.2380 C   0  0  0  0  0  0  0  0  0  0  0  0
  -12.1620   -2.1280   30.2760 C   0  0  0  0  0  0  0  0  0  0  0  0
   -4.9830  -10.9870   22.9330 O   0  0  0  0  0  0  0  0  0  0  0  0
   -6.2800  -10.9980   24.5110 C   0  0  0  0  0  0  0  0  0  0  0  0
   -8.4410   -6.3890   26.1230 N   0  0  0  0  0  0  0  0  0  0  0  0
   -8.6500   -6.5910   27.4750 C   0  0  0  0  0  0  0  0  0  0  0  0
   -6.4160   -9.1490   23.4690 C   0  0  0  0  0  0  0  0  0  0  0  0
  -10.2520   -5.5990   28.6380 C   0  0  0  0  0  0  0  0  0  0  0  0
  1 19  1  0
  3  2  2  3
  4 14  1  0
  4 15  1  0
  6  2  1  0
  6 16  1  0
  7 15  1  0
  8 18  2  0
  9 10  2  0
 10  5  1  0
 11 13  1  0
 12 11  2  0
 12  9  1  0
 13  5  2  0
 16 17  1  0
 17  1  1  0
 18  4  1  0
 18  3  1  0
 19  9  1  0
M  END
$$$$

     RDKit          3D

  9  8  0  0  0  0  0  0  0  0999 V2000
  -11.8660   -3.2830   29.2140 O   0  0  0  0  0  0  0  0  0  0  0  0
   -6.7380   -6.0120   28.4250 O   0  0  0  0  0  0  0  0  0  0  0  0
   -7.6300   -5.6620   27.5660 C   0  0  0  0  0  0  0  0  0  0  0  0
  -11.0220   -5.0250   28.1830 O   0  0  0  0  0  0  0  0  0  0  0  0
   -9.7830   -5.4450   28.6520 C   0  0  0  0  0  0  0  0  0  0  0  0
   -8.5810   -4.6760   28.1290 C   0  0  0  0  0  0  0  0  0  0  0  0
  -11.4590   -3.6860   28.1940 C   0  0  0  0  0  0  0  0  0  0  0  0
   -7.7240   -6.1800   26.4890 O   0  0  0  0  0  0  0  0  0  0  0  0
  -11.7650   -2.7890   27.0270 C   0  0  0  0  0  0  0  0  0  0  0  0
  3  6  1  0
  3  2  1  0
  4  7  1  0
  4  5  1  0
  6  5  1  0
  7  1  2  0
  8  3  2  0
  9  7  1  0
M  END
$$$$

     RDKit          3D

 14 16  0  0  0  0  0  0  0  0999 V2000
  -13.0530   -9.7410   22.3120 C   0  0  0  0  0  0  0  0  0  0  0  0
  -14.6230   -9.0840   22.1390 C   0  0  0  0  0  0  0  0  0  0  0  0
  -10.9210   -9.8320   22.9310 C   0  0  0  0  0  0  0  0  0  0  0  0
  -11.5530   -9.7230   22.7430 C   0  0  0  0  0  0  0  0  0  0  0  0
  -12.3920  -10.2260   22.2040 C   0  0  0  0  0  0  0  0  0  0  0  0
  -14.8710   -8.0490   21.9560 C   0  0  0  0  0  0  0  0  0  0  0  0
  -11.3110   -9.2260   23.6560 C   0  0  0  0  0  0  0  0  0  0  0  0
  -11.7490   -9.6990   23.0020 C   0  0  0  0  0  0  0  0  0  0  0  0
  -13.1740   -8.3840   21.6380 C   0  0  0  0  0  0  0  0  0  0  0  0
  -15.3610   -8.2100   21.5390 C   0  0  0  0  0  0  0  0  0  0  0  0
  -14.1490   -8.4740   21.1910 C   0  0  0  0  0  0  0  0  0  0  0  0
  -15.2660   -9.5690   22.6280 S   0  0  0  0  0  0  0  0  0  0  0  0
  -12.3950   -9.2040   22.8100 C   0  0  0  0  0  0  0  0  0  0  0  0
  -13.5330   -9.6590   22.3500 C   0  0  0  0  0  0  0  0  0  0  0  0
  1  5  1  0
  1 13  1  0
  2 14  1  0
  2 12  1  0
  4  3  2  0
  5  4  1  0
  6 10  1  0
  6  2  1  0
  8  7  1  0
  9 14  1  0
 10 12  1  0
 11  9  1  0
 11  6  1  0
 11  2  1  0
 13  8  1  0
 14  1  1  0
M  END
$$$$

     RDKit          3D

  9 11  0  0  0  0  0  0  0  0999 V2000
  -14.3430   -8.7600   23.4300 S   0  0  0  0  0  0  0  0  0  0  0  0
  -11.9840   -7.7060   24.8430 C   0  0  0  0  0  0  0  0  0  0  0  0
  -10.4460   -6.2840   26.1100 O   0  0  0  0  0  0  0  0  0  0  0  0
  -13.4020   -6.0190   24.1200 C   0  0  0  0  0  0  0  0  0  0  0  0
  -13.2720   -7.1240   25.7220 S   0  0  0  0  0  0  0  0  0  0  0  0
  -13.0100   -7.6010   23.8880 C   0  0  0  0  0  0  0  0  0  0  0  0
  -10.7120   -6.9600   24.8480 C   0  0  0  0  0  0  0  0  0  0  0  0
  -15.7280   -7.5760   24.2940 S   0  0  0  0  0  0  0  0  0  0  0  0
  -14.9460   -5.8380   24.1380 C   0  0  0  0  0  0  0  0  0  0  0  0
  1  6  1  0
  1  8  1  0
  2  7  1  0
  2  5  1  0
  4  9  1  0
  4  5  1  0
  6  4  1  0
  6  2  1  0
  6  5  1  0
  7  3  1  0
  9  8  1  0
M  END
$$$$

     RDKit          3D

 15 16  0  0  0  0  0  0  0  0999 V2000
  -13.9120   -7.1080   22.4110 C   0  0  0  0  0  0  0  0  0  0  0  0
  -15.2820   -9.4810   21.9560 C   0  0  0  0  0  0  0  0  0  0  0  0
  -13.1470   -8.6000   24.3880 C   0  0  0  0  0  0  0  0  0  0  0  0
  -14.9220  -10.7110   21.8300 S   0  0  0  0  0  0  0  0  0  0  0  0
  -14.4730   -9.0200   21.2270 C   0  0  0  0  0  0  0  0  0  0  0  0
  -13.4900   -8.6580   24.9740 F   0  0  0  0  0  0  0  0  0  0  0  0
  -15.8390   -9.3420   23.1000 O   0  0  0  0  0  0  0  0  0  0  0  0
  -11.8440   -8.7090   23.5490 C   0  0  0  0  0  0  0  0  0  0  0  0
  -13.5110   -7.8430   22.5210 C   0  0  0  0  0  0  0  0  0  0  0  0
  -15.0050   -8.0830   22.3810 C   0  0  0  0  0  0  0  0  0  0  0  0
  -15.3970   -8.6330   21.7440 F   0  0  0  0  0  0  0  0  0  0  0  0
  -14.9490   -9.4580   22.2890 C   0  0  0  0  0  0  0  0  0  0  0  0
  -12.7980   -7.9260   23.5710 C   0  0  0  0  0  0  0  0  0  0  0  0
  -14.0670   -8.2480   21.9820 C   0  0  0  0  0  0  0  0  0  0  0  0
  -11.8760   -7.7400   22.9230 C   0  0  0  0  0  0  0  0  0  0  0  0
  1  9  2  0
  2 12  1  0
  3  6  1  0
  5 14  2  0
  8 15  1  0
  8 13  1  0
  8  3  1  0
 11  2  1  0
 12  4  1  0
 12 10  1  0
 12  7  1  0
 13  9  1  0
 13  3  1  0
 14 10  1  0
 14  9  1  0
 15 13  1  0
M  END
$$$$

     RDKit          3D

 19 18  0  0  0  0  0  0  0  0999 V2000
  -14.7730   -4.6650   26.6410 C   0  0  0  0  0  0  0  0  0  0  0  0
   -9.8900   -5.1310   28.5810 C   0  0  0  0  0  0  0  0  0  0  0  0
  -11.3350   -5.5210   28.3190 C   0  0  0  0  0  0  0  0  0  0  0  0
   -6.5550   -5.0780   24.9820 O   0  0  0  0  0  0  0  0  0  0  0  0
   -7.1690   -7.3410   25.5910 O   0  0  0  0  0  0  0  0  0  0  0  0
   -8.9820   -5.2970   27.3030 C   0  0  0  0  0  0  0  0  0  0  0  0
  -12.4980   -4.5320   28.4040 C   0  0  0  0  0  0  0  0  0  0  0  0
  -17.5220   -6.9650   24.4270 O   0  0  0  0  0  0  0  0  0  0  0  0
  -18.1870   -4.8260   27.0260 C   0  0  0  0  0  0  0  0  0  0  0  0
   -7.4990   -5.7180   27.4140 C   0  0  0  0  0  0  0  0  0  0  0  0
  -17.5380   -4.9040   25.7630 C   0  0  0  0  0  0  0  0  0  0  0  0
  -13.6260   -4.5930   27.3530 C   0  0  0  0  0  0  0  0  0  0  0  0
  -19.2190   -5.6950   27.2590 O   0  0  0  0  0  0  0  0  0  0  0  0
   -4.8300   -6.1990   26.8170 C   0  0  0  0  0  0  0  0  0  0  0  0
   -6.4910   -6.2010   26.2010 S   0  0  0  0  0  0  0  0  0  0  0  0
  -18.2870   -6.2720   25.0810 C   0  0  0  0  0  0  0  0  0  0  0  0
  -15.9510   -4.8090   25.9620 C   0  0  0  0  0  0  0  0  0  0  0  0
   -7.4100   -6.8270   28.3530 O   0  0  0  0  0  0  0  0  0  0  0  0
  -19.5530   -5.8890   24.9660 O   0  0  0  0  0  0  0  0  0  0  0  0
  1 12  3  0
  3  7  1  0
  3  2  1  0
  4 15  2  0
  5 15  2  0
  6 10  1  0
  6  2  1  0
  8 16  2  0
  9 13  1  0
 10 18  1  0
 11 17  1  0
 11  9  1  0
 12  7  1  0
 15 14  1  0
 15 10  1  0
 16 11  1  0
 17  1  1  0
 19 16  1  0
M  END
$$$$

     RDKit          3D

 10  9  0  0  0  0  0  0  0  0999 V2000
  -11.1970   -5.4960   25.9950 N   0  0  0  0  0  0  0  0  0  0  0  0
  -15.4050   -5.6020   25.3310 C   0  0  0  0  0  0  0  0  0  0  0  0
  -14.1450   -6.0010   25.3680 C   0  0  0  0  0  0  0  0  0  0  0  0
  -13.1760   -4.9600   26.6900 C   0  0  0  0  0  0  0  0  0  0  0  0
  -12.7450   -4.4450   26.5360 C   0  0  0  0  0  0  0  0  0  0  0  0
  -16.5580   -6.5900   25.0620 C   0  0  0  0  0  0  0  0  0  0  0  0
   -9.8280   -5.8090   26.3570 C   0  0  0  0  0  0  0  0  0  0  0  0
  -11.2550   -4.1950   26.2540 N   0  0  0  0  0  0  0  0  0  0  0  0
  -14.0330   -3.9810   26.3080 C   0  0  0  0  0  0  0  0  0  0  0  0
  -15.4750   -4.3240   26.0060 C   0  0  0  0  0  0  0  0  0  0  0  0
  1  8  1  0
  1  7  1  0
  2  3  1  0
  2 10  1  0
  3  4  1  0
  4  9  1  0
  5  4  1  0
  6  2  1  0
  8  5  1  0
M  END
$$$$

     RDKit          3D

 10 11  0  0  0  0  0  0  0  0999 V2000
  -11.1060   -9.5010   24.7820 C   0  0  0  0  0  0  0  0  0  0  0  0
   -8.6900   -9.4540   25.3190 C   0  0  0  0  0  0  0  0  0  0  0  0
  -11.4140   -8.8110   23.9550 C   0  0  0  0  0  0  0  0  0  0  0  0
  -10.8730  -11.5360   23.7720 C   0  0  0  0  0  0  0  0  0  0  0  0
  -10.1700   -8.4130   25.4620 C   0  0  0  0  0  0  0  0  0  0  0  0
  -12.4470  -10.5040   23.3430 C   0  0  0  0  0  0  0  0  0  0  0  0
   -9.0930   -8.5860   24.9310 C   0  0  0  0  0  0  0  0  0  0  0  0
  -10.2690  -10.5500   24.4700 C   0  0  0  0  0  0  0  0  0  0  0  0
  -11.7490  -12.4270   24.4990 N   0  0  0  0  0  0  0  0  0  0  0  0
  -11.4200   -9.7370   23.5930 C   0  0  0  0  0  0  0  0  0  0  0  0
  1  5  1  0
  3  1  1  0
  4  9  1  0
  7  2  1  0
  7  5  1  0
  8  4  1  0
  8  1  1  0
 10  6  1  0
 10  3  1  0
 10  8  1  0
 10  1  1  0
M  END
$$$$

     RDKit          3D

  8  8  0  0  0  0  0  0  0  0999 V2000
  -12.9390   -9.7310   25.7270 S   0  0  0  0  0  0  0  0  0  0  0  0
  -12.1300  -10.3170   24.5460 C   0  0  0  0  0  0  0  0  0  0  0  0
  -10.1150   -9.2940   24.5340 F   0  0  0  0  0  0  0  0  0  0  0  0
  -11.3000   -8.0490   26.3630 S   0  0  0  0  0  0  0  0  0  0  0  0
  -11.8700   -9.0500   25.1090 C   0  0  0  0  0  0  0  0  0  0  0  0
  -12.9170   -8.9200   24.2860 C   0  0  0  0  0  0  0  0  0  0  0  0
  -10.9010   -8.4790   25.1750 C   0  0  0  0  0  0  0  0  0  0  0  0
  -11.8060   -8.3300   24.6700 C   0  0  0  0  0  0  0  0  0  0  0  0
  2  1  1  0
  5  7  1  0
  5  1  1  0
  7  3  1  0
  7  4  1  0
  8  6  1  0
  8  5  1  0
  8  7  1  0
M  END
$$$$

     RDKit          3D

  9  9  0  0  0  0  0  0  0  0999 V2000
   -5.7660   -6.5500   23.6270 C   0  0  0  0  0  0  0  0  0  0  0  0
   -5.5670   -7.7980   24.1190 C   0  0  0  0  0  0  0  0  0  0  0  0
   -7.3560   -6.4090   26.3690 C   0  0  0  0  0  0  0  0  0  0  0  0
   -7.3370   -5.7960   27.7650 C   0  0  0  0  0  0  0  0  0  0  0  0
   -7.9050   -6.4250   28.4640 O   0  0  0  0  0  0  0  0  0  0  0  0
   -6.5960   -6.5840   25.5480 N   0  0  0  0  0  0  0  0  0  0  0  0
   -6.7850   -4.8100   27.9310 O   0  0  0  0  0  0  0  0  0  0  0  0
   -6.0790   -7.9110   25.2880 N   0  0  0  0  0  0  0  0  0  0  0  0
   -6.4160   -5.8040   24.5490 C   0  0  0  0  0  0  0  0  0  0  0  0
  1  2  1  0
  1  9  2  0
  2  8  2  0
  3  4  1  0
  4  7  2  0
  4  5  1  0
  6  3  1  0
  8  6  1  0
  9  6  1  0
M  END
$$$$

     RDKit          3D

  9  8  0  0  0  0  0  0  0  0999 V2000
  -11.0690   -7.8370   25.2610 O   0  0  0  0  0  0  0  0  0  0  0  0
  -10.2800   -5.2870   27.5790 C   0  0  0  0  0  0  0  0  0  0  0  0
  -10.7060   -7.3690   26.4240 C   0  0  0  0  0  0  0  0  0  0  0  0
  -11.9570   -6.6390   27.0710 C   0  0  0  0  0  0  0  0  0  0  0  0
   -9.6530   -6.2490   25.8610 N   0  0  0  0  0  0  0  0  0  0  0  0
  -11.6140   -5.8500   27.7690 O   0  0  0  0  0  0  0  0  0  0  0  0
  -11.4810   -7.4000   26.4150 C   0  0  0  0  0  0  0  0  0  0  0  0
   -9.1430   -5.8940   27.2960 C   0  0  0  0  0  0  0  0  0  0  0  0
  -10.2230   -4.0190   26.9440 O   0  0  0  0  0  0  0  0  0  0  0  0
  1  7  1  0
  2  6  1  0
  4  6  1  0
  5  8  1  0
  7  3  1  0
  7  4  1  0
  8  2  1  0
  9  2  2  0
M  END
$$$$

     RDKit          3D

 34 37  0  0  0  0  0  0  0  0999 V2000
  -14.5300   -2.3680   26.8490 C   0  0  0  0  0  0  0  0  0  0  0  0
  -19.4650  -10.1920   30.9490 C   0  0  0  0  0  0  0  0  0  0  0  0
  -18.7280   -5.7620   25.9650 C   0  0  0  0  0  0  0  0  0  0  0  0
  -18.5380   -6.4330   23.3640 C   0  0  0  0  0  0  0  0  0  0  0  0
  -12.3420   -3.2720   27.4010 C   0  0  0  0  0  0  0  0  0  0  0  0
  -20.4280   -6.4510   30.1960 N   0  0  0  0  0  0  0  0  0  0  0  0
  -13.6640  -10.4790   19.3320 C   0  0  0  0  0  0  0  0  0  0  0  0
  -22.1830   -7.6670   30.3560 C   0  0  0  0  0  0  0  0  0  0  0  0
  -19.4300   -5.1200   28.3370 C   0  0  0  0  0  0  0  0  0  0  0  0
  -21.8600   -6.1310   30.7660 C   0  0  0  0  0  0  0  0  0  0  0  0
  -18.7730   -5.8360   22.3030 O   0  0  0  0  0  0  0  0  0  0  0  0
  -17.3770   -5.4680   26.2780 O   0  0  0  0  0  0  0  0  0  0  0  0
  -14.1350   -9.0720   19.6150 C   0  0  0  0  0  0  0  0  0  0  0  0
  -19.3890   -5.8880   29.6480 C   0  0  0  0  0  0  0  0  0  0  0  0
  -13.0950  -10.5030   17.9330 C   0  0  0  0  0  0  0  0  0  0  0  0
  -18.2520   -4.2150   28.3170 C   0  0  0  0  0  0  0  0  0  0  0  0
  -14.2830   -4.7030   27.3010 C   0  0  0  0  0  0  0  0  0  0  0  0
  -17.7280   -7.8880   22.9920 S   0  0  0  0  0  0  0  0  0  0  0  0
  -19.5200   -6.0130   27.1690 C   0  0  0  0  0  0  0  0  0  0  0  0
   -9.8370   -2.9360   27.6660 C   0  0  0  0  0  0  0  0  0  0  0  0
  -16.4420   -3.4460   26.7920 O   0  0  0  0  0  0  0  0  0  0  0  0
  -15.0810   -3.5970   26.9060 C   0  0  0  0  0  0  0  0  0  0  0  0
  -15.4290   -8.3760   19.2350 C   0  0  0  0  0  0  0  0  0  0  0  0
  -16.1590   -7.5470   20.2610 O   0  0  0  0  0  0  0  0  0  0  0  0
  -18.8980   -6.0440   24.6540 N   0  0  0  0  0  0  0  0  0  0  0  0
  -17.4780   -4.2200   26.9900 C   0  0  0  0  0  0  0  0  0  0  0  0
  -18.4910   -5.9930   30.3790 O   0  0  0  0  0  0  0  0  0  0  0  0
  -11.1060   -2.8390   26.9930 O   0  0  0  0  0  0  0  0  0  0  0  0
  -13.1670   -2.1220   27.1330 C   0  0  0  0  0  0  0  0  0  0  0  0
  -20.6340   -7.8160   30.3160 C   0  0  0  0  0  0  0  0  0  0  0  0
  -17.1210   -8.1500   21.3740 C   0  0  0  0  0  0  0  0  0  0  0  0
  -12.8850   -4.5170   27.5030 C   0  0  0  0  0  0  0  0  0  0  0  0
  -20.2190   -8.8880   31.3280 C   0  0  0  0  0  0  0  0  0  0  0  0
  -12.4110   -9.9250   18.8490 C   0  0  0  0  0  0  0  0  0  0  0  0
  1 22  2  0
  1 29  1  0
  2 33  1  0
  3 25  1  0
  3 12  1  0
  3 19  1  0
  4 25  1  0
  5 32  1  0
  6 30  1  0
  6 10  1  0
  7 13  1  0
  8 10  1  0
  9 14  1  0
 11  4  2  0
 12 26  1  0
 14  6  1  0
 14 27  2  0
 15 34  1  0
 15  7  1  0
 16  9  1  0
 17 32  2  0
 18  4  1  0
 19  9  1  0
 21 22  1  0
 22 17  1  0
 23 13  1  0
 23 24  1  0
 24 31  1  0
 26 21  1  0
 26 16  1  0
 28  5  1  0
 28 20  1  0
 29  5  2  0
 30  8  1  0
 30 33  1  0
 31 18  1  0
 34  7  1  0
M  END
$$$$
