
     RDKit          3D

 20 23  0  0  0  0  0  0  0  0999 V2000
   11.3260    4.3210    3.2270 S   0  0  0  0  0  0  0  0  0  0  0  0
    8.1320    7.5210    5.1960 C   0  0  0  0  0  0  0  0  0  0  0  0
   10.3490    7.0610    3.3560 C   0  0  0  0  0  0  0  0  0  0  0  0
   12.9840    2.3260    2.9170 O   0  0  0  0  0  0  0  0  0  0  0  0
    9.2070    3.2820    4.2630 O   0  0  0  0  0  0  0  0  0  0  0  0
    8.5890    1.4000    5.5840 O   0  0  0  0  0  0  0  0  0  0  0  0
   11.5590    2.3500    3.1870 C   0  0  0  0  0  0  0  0  0  0  0  0
    8.5540    6.8550    3.9060 C   0  0  0  0  0  0  0  0  0  0  0  0
    8.2290    8.8450    2.4740 N   0  0  0  0  0  0  0  0  0  0  0  0
    9.5860    4.5910    4.0470 C   0  0  0  0  0  0  0  0  0  0  0  0
    9.3430    9.3130    3.3840 C   0  0  0  0  0  0  0  0  0  0  0  0
    8.3160    5.3770    3.6660 C   0  0  0  0  0  0  0  0  0  0  0  0
    6.6560    3.3200    4.3910 C   0  0  0  0  0  0  0  0  0  0  0  0
    7.2600    4.6720    4.3960 C   0  0  0  0  0  0  0  0  0  0  0  0
   10.3440    3.1680    6.3290 O   0  0  0  0  0  0  0  0  0  0  0  0
    7.7670    7.5450    2.7490 C   0  0  0  0  0  0  0  0  0  0  0  0
    9.8490    2.3680    5.2350 S   0  0  0  0  0  0  0  0  0  0  0  0
   10.4430    8.3140    3.3400 C   0  0  0  0  0  0  0  0  0  0  0  0
   10.6990    5.7720    4.0960 C   0  0  0  0  0  0  0  0  0  0  0  0
   11.2370    1.5280    4.5350 C   0  0  0  0  0  0  0  0  0  0  0  0
  1 10  1  0
  1 19  1  0
  3  8  1  0
  3 19  1  0
  4  7  1  0
  5 17  1  0
  7  1  1  0
  7 20  1  0
  8  2  1  0
  9 16  1  0
  9 11  1  0
 10 19  1  0
 10  5  1  0
 12  8  1  0
 12 10  1  0
 12 14  1  0
 13 14  1  0
 16  8  1  0
 17  6  1  0
 17 15  1  0
 18  3  1  0
 18 11  1  0
 20 17  1  0
M  END
$$$$

     RDKit          3D

  3  2  0  0  0  0  0  0  0  0999 V2000
    6.8580    3.2810    0.0780 O   0  0  0  0  0  0  0  0  0  0  0  0
    7.0550    3.5600    0.0550 Br  0  0  0  0  0  0  0  0  0  0  0  0
    6.9110    3.4500   -0.3090 O   0  0  0  0  0  0  0  0  0  0  0  0
  3  2  1  0
  3  1  1  0
M  END
$$$$

     RDKit          3D

  4  3  0  0  0  0  0  0  0  0999 V2000
    5.2570    3.7190    1.2430 O   0  0  0  0  0  0  0  0  0  0  0  0
    4.8590    3.8340    1.1670 Br  0  0  0  0  0  0  0  0  0  0  0  0
    5.8410    4.2670    1.5930 Br  0  0  0  0  0  0  0  0  0  0  0  0
    5.6000    3.9100    1.4810 O   0  0  0  0  0  0  0  0  0  0  0  0
  1  4  1  0
  2  1  1  0
  4  3  1  0
M  END
$$$$

     RDKit          3D

 23 24  0  0  0  0  0  0  0  0999 V2000
    5.9170    6.3100   -2.3910 C   0  0  0  0  0  0  0  0  0  0  0  0
    5.0730    7.3190    2.7190 C   0  0  0  0  0  0  0  0  0  0  0  0
    4.2460    8.6300   -1.7270 O   0  0  0  0  0  0  0  0  0  0  0  0
    5.1070    7.6920    0.3130 N   0  0  0  0  0  0  0  0  0  0  0  0
    8.5670    3.9940   -3.8720 C   0  0  0  0  0  0  0  0  0  0  0  0
    4.7090    6.9810    1.3390 N   0  0  0  0  0  0  0  0  0  0  0  0
    4.7000    6.1700   -1.2710 N   0  0  0  0  0  0  0  0  0  0  0  0
    9.1370    2.9390   -5.0670 C   0  0  0  0  0  0  0  0  0  0  0  0
    7.9380    2.0490   -3.0470 C   0  0  0  0  0  0  0  0  0  0  0  0
    6.5190    4.6240   -3.9040 C   0  0  0  0  0  0  0  0  0  0  0  0
    7.1130    5.4320    5.1340 C   0  0  0  0  0  0  0  0  0  0  0  0
    8.4850    5.8460    3.3520 C   0  0  0  0  0  0  0  0  0  0  0  0
    5.7580    5.1810   -2.9740 N   0  0  0  0  0  0  0  0  0  0  0  0
    5.7940    5.4230    3.9550 C   0  0  0  0  0  0  0  0  0  0  0  0
    8.0260    4.6490    4.2730 C   0  0  0  0  0  0  0  0  0  0  0  0
    6.0910    6.3560    2.9790 N   0  0  0  0  0  0  0  0  0  0  0  0
    7.3420    6.8760    2.9760 C   0  0  0  0  0  0  0  0  0  0  0  0
    6.8620    4.6840    6.3990 C   0  0  0  0  0  0  0  0  0  0  0  0
    8.1560    1.8220   -4.4020 C   0  0  0  0  0  0  0  0  0  0  0  0
   10.5760    2.4960   -5.6360 O   0  0  0  0  0  0  0  0  0  0  0  0
    6.9250    3.0700   -2.9720 O   0  0  0  0  0  0  0  0  0  0  0  0
    7.3420    3.8610   -4.0810 C   0  0  0  0  0  0  0  0  0  0  0  0
    4.6720    7.3270   -0.9650 C   0  0  0  0  0  0  0  0  0  0  0  0
  1  7  1  0
  2 16  1  0
  3 23  2  0
  4  6  2  3
  6  2  1  0
  7 23  1  0
  8 20  1  0
  8 19  1  0
  8  5  1  0
  9 21  1  0
 10 13  1  0
 11 18  1  0
 12 15  1  0
 13  1  1  0
 14 11  1  0
 15 11  1  0
 16 14  1  0
 17 16  1  0
 17 12  1  0
 19  9  1  0
 22 10  1  0
 22  5  1  0
 22 21  1  0
 23  4  1  0
M  END
$$$$
