
     RDKit          3D

 24 26  0  0  0  0  0  0  0  0999 V2000
    6.2500  -35.2480  -35.0670 N   0  0  0  0  0  0  0  0  0  0  0  0
    3.3960  -34.9830  -35.5300 F   0  0  0  0  0  0  0  0  0  0  0  0
    9.8820  -33.9800  -30.8260 N   0  0  0  0  0  0  0  0  0  0  0  0
   10.2490  -34.2610  -32.1360 C   0  0  0  0  0  0  0  0  0  0  0  0
   12.1240  -33.6920  -33.6120 N   0  0  0  0  0  0  0  0  0  0  0  0
   11.1230  -33.2020  -28.7050 C   0  0  0  0  0  0  0  0  0  0  0  0
   15.6840  -32.7040  -34.3010 N   0  0  0  0  0  0  0  0  0  0  0  0
    5.9920  -33.3700  -33.7470 C   0  0  0  0  0  0  0  0  0  0  0  0
    7.6210  -32.2130  -32.3000 C   0  0  0  0  0  0  0  0  0  0  0  0
    9.5120  -34.9440  -33.2300 C   0  0  0  0  0  0  0  0  0  0  0  0
    5.4750  -34.1840  -34.6590 C   0  0  0  0  0  0  0  0  0  0  0  0
   14.9600  -31.3860  -34.4800 C   0  0  0  0  0  0  0  0  0  0  0  0
    7.2940  -33.4480  -33.1780 C   0  0  0  0  0  0  0  0  0  0  0  0
    4.0560  -34.0070  -35.2790 C   0  0  0  0  0  0  0  0  0  0  0  0
   11.0200  -33.5000  -30.2010 C   0  0  0  0  0  0  0  0  0  0  0  0
   13.1860  -33.1970  -34.3410 C   0  0  0  0  0  0  0  0  0  0  0  0
   11.9860  -33.3910  -31.0880 N   0  0  0  0  0  0  0  0  0  0  0  0
    3.3720  -33.1700  -34.5180 F   0  0  0  0  0  0  0  0  0  0  0  0
   14.3800  -32.5110  -33.6860 C   0  0  0  0  0  0  0  0  0  0  0  0
    4.3680  -33.3890  -36.4300 F   0  0  0  0  0  0  0  0  0  0  0  0
   10.2490  -35.9560  -34.0020 C   0  0  0  0  0  0  0  0  0  0  0  0
    8.0210  -34.4400  -33.5970 C   0  0  0  0  0  0  0  0  0  0  0  0
   11.5510  -33.8100  -32.3850 C   0  0  0  0  0  0  0  0  0  0  0  0
    7.4950  -35.4400  -34.4980 C   0  0  0  0  0  0  0  0  0  0  0  0
  1 11  2  0
  1 24  1  0
  2 14  1  0
  3 15  2  0
  4  3  2  0
  5 23  1  0
  7 19  1  0
  8 13  1  0
 10 21  1  0
 10  4  1  0
 11  8  1  0
 12  7  1  0
 12 19  1  0
 13  9  1  0
 14 11  1  0
 14 18  1  0
 15  6  1  0
 16  5  2  3
 17 15  2  0
 19 16  1  0
 20 14  1  0
 22 10  1  0
 22 13  2  0
 23  4  1  0
 23 17  2  0
 24 22  1  0
M  END
$$$$

     RDKit          3D

 12 13  0  0  0  0  0  0  0  0999 V2000
    9.2510  -32.8090  -31.4110 N   0  0  0  0  0  0  0  0  0  0  0  0
   11.9330  -33.3360  -31.5740 C   0  0  0  0  0  0  0  0  0  0  0  0
   11.1230  -33.9260  -31.4750 C   0  0  0  0  0  0  0  0  0  0  0  0
    6.4290  -33.5820  -33.6120 C   0  0  0  0  0  0  0  0  0  0  0  0
    5.5780  -32.5610  -33.1690 C   0  0  0  0  0  0  0  0  0  0  0  0
    7.2000  -31.6820  -31.7700 C   0  0  0  0  0  0  0  0  0  0  0  0
    7.7340  -33.6350  -33.0300 C   0  0  0  0  0  0  0  0  0  0  0  0
   11.4620  -33.3270  -30.6640 C   0  0  0  0  0  0  0  0  0  0  0  0
   10.0560  -33.6260  -32.1460 N   0  0  0  0  0  0  0  0  0  0  0  0
    8.0640  -32.7270  -32.0500 C   0  0  0  0  0  0  0  0  0  0  0  0
    9.4990  -32.2040  -30.4570 O   0  0  0  0  0  0  0  0  0  0  0  0
    5.9560  -31.6080  -32.2570 C   0  0  0  0  0  0  0  0  0  0  0  0
  1 11  1  0
  2  3  1  0
  2  8  1  0
  3  8  1  0
  4  5  2  0
  4  7  1  0
  5 12  1  0
  7 10  2  0
  9  3  1  0
  9  1  1  0
 10  6  1  0
 10  1  1  0
 12  6  2  0
M  END
$$$$

     RDKit          3D

 24 26  0  0  0  0  0  0  0  0999 V2000
    3.1190  -32.9410  -33.3870 O   0  0  0  0  0  0  0  0  0  0  0  0
   12.7160  -32.1590  -31.9280 O   0  0  0  0  0  0  0  0  0  0  0  0
    8.9770  -32.5210  -30.5180 O   0  0  0  0  0  0  0  0  0  0  0  0
   10.8440  -34.0470  -32.9080 C   0  0  0  0  0  0  0  0  0  0  0  0
    9.3830  -33.0690  -31.6140 C   0  0  0  0  0  0  0  0  0  0  0  0
   10.7990  -36.3350  -34.2940 C   0  0  0  0  0  0  0  0  0  0  0  0
   12.2800  -38.1030  -34.7950 C   0  0  0  0  0  0  0  0  0  0  0  0
   10.6640  -33.1900  -31.8120 N   0  0  0  0  0  0  0  0  0  0  0  0
    4.3380  -34.8200  -35.4900 Cl  0  0  0  0  0  0  0  0  0  0  0  0
    5.2050  -32.2180  -32.5840 C   0  0  0  0  0  0  0  0  0  0  0  0
    5.1790  -33.9660  -34.2580 C   0  0  0  0  0  0  0  0  0  0  0  0
   11.8010  -32.5310  -31.1730 C   0  0  0  0  0  0  0  0  0  0  0  0
    6.5620  -32.3190  -32.4440 C   0  0  0  0  0  0  0  0  0  0  0  0
    7.2770  -33.3810  -33.0960 C   0  0  0  0  0  0  0  0  0  0  0  0
    4.5160  -33.0810  -33.4670 C   0  0  0  0  0  0  0  0  0  0  0  0
    2.8570  -32.3200  -32.0560 C   0  0  0  0  0  0  0  0  0  0  0  0
   11.9750  -34.4340  -33.5790 C   0  0  0  0  0  0  0  0  0  0  0  0
    9.5530  -34.5480  -33.3190 C   0  0  0  0  0  0  0  0  0  0  0  0
   10.9290  -37.6800  -34.5110 O   0  0  0  0  0  0  0  0  0  0  0  0
    9.5200  -35.7610  -34.0270 C   0  0  0  0  0  0  0  0  0  0  0  0
   11.9080  -32.2940  -29.7080 C   0  0  0  0  0  0  0  0  0  0  0  0
    6.4920  -34.1890  -34.0150 C   0  0  0  0  0  0  0  0  0  0  0  0
   11.9490  -35.6300  -34.3060 C   0  0  0  0  0  0  0  0  0  0  0  0
    8.6650  -33.6200  -32.6920 N   0  0  0  0  0  0  0  0  0  0  0  0
  1 16  1  0
  2 12  2  0
  4 17  1  0
  4  8  1  0
  5  3  2  0
  6 19  1  0
  6 20  1  0
  7 19  1  0
  8  5  1  0
  8 12  1  0
  9 11  1  0
 10 13  1  0
 11 22  2  0
 11 15  1  0
 12 21  1  0
 14 24  1  0
 14 13  2  0
 15  1  1  0
 15 10  2  0
 18 20  1  0
 18  4  1  0
 18 24  1  0
 22 14  1  0
 23  6  1  0
 23 17  2  0
 24  5  1  0
M  END
$$$$

     RDKit          3D

 22 25  0  0  0  0  0  0  0  0999 V2000
    5.1650  -34.1790  -34.5620 C   0  0  0  0  0  0  0  0  0  0  0  0
    9.9870  -34.6450  -34.4670 C   0  0  0  0  0  0  0  0  0  0  0  0
   12.2010  -33.4010  -33.0470 C   0  0  0  0  0  0  0  0  0  0  0  0
    4.6440  -35.3270  -35.6890 C   0  0  0  0  0  0  0  0  0  0  0  0
   10.9040  -33.3560  -31.0360 C   0  0  0  0  0  0  0  0  0  0  0  0
   13.3320  -33.0870  -32.2460 C   0  0  0  0  0  0  0  0  0  0  0  0
   12.0460  -33.2540  -30.3250 C   0  0  0  0  0  0  0  0  0  0  0  0
    7.5400  -35.7730  -34.7010 C   0  0  0  0  0  0  0  0  0  0  0  0
    9.7730  -33.6690  -33.3170 C   0  0  0  0  0  0  0  0  0  0  0  0
   10.9330  -33.4170  -32.4210 C   0  0  0  0  0  0  0  0  0  0  0  0
    7.0160  -36.0790  -35.9460 C   0  0  0  0  0  0  0  0  0  0  0  0
    6.4570  -34.4250  -34.4410 C   0  0  0  0  0  0  0  0  0  0  0  0
    6.2210  -32.9280  -33.1810 N   0  0  0  0  0  0  0  0  0  0  0  0
   12.3470  -32.1340  -28.2330 C   0  0  0  0  0  0  0  0  0  0  0  0
    5.5020  -36.2920  -36.0990 N   0  0  0  0  0  0  0  0  0  0  0  0
   11.8290  -33.2350  -28.8920 O   0  0  0  0  0  0  0  0  0  0  0  0
   13.3340  -33.1490  -30.8400 C   0  0  0  0  0  0  0  0  0  0  0  0
    9.7630  -33.4340  -30.3240 F   0  0  0  0  0  0  0  0  0  0  0  0
    7.1750  -33.8800  -33.6600 C   0  0  0  0  0  0  0  0  0  0  0  0
    8.3610  -33.5370  -32.9980 C   0  0  0  0  0  0  0  0  0  0  0  0
    9.3040  -35.6640  -34.7560 C   0  0  0  0  0  0  0  0  0  0  0  0
    5.0730  -33.4350  -33.7980 C   0  0  0  0  0  0  0  0  0  0  0  0
  1 22  2  0
  2  9  1  0
  3 10  2  0
  3  6  1  0
  4  1  1  0
  5  7  2  0
  5 18  1  0
  6 17  2  0
  7 16  1  0
  8 11  1  0
  8 12  1  0
  9 20  1  0
  9 10  1  0
 10  5  1  0
 12  1  1  0
 12 19  1  0
 15 11  1  0
 15  4  1  0
 16 14  1  0
 17  7  1  0
 19 13  2  0
 19 20  1  0
 21  8  1  0
 21  2  1  0
 22 13  1  0
M  END
$$$$

     RDKit          3D

 25 28  0  0  0  0  0  0  0  0999 V2000
    7.1900  -33.9880  -33.6250 C   0  0  0  0  0  0  0  0  0  0  0  0
   10.6200  -38.1910  -34.6310 O   0  0  0  0  0  0  0  0  0  0  0  0
   11.9340  -32.8010  -28.5510 C   0  0  0  0  0  0  0  0  0  0  0  0
   11.4530  -33.3390  -31.6620 C   0  0  0  0  0  0  0  0  0  0  0  0
    9.0630  -32.3720  -30.8390 C   0  0  0  0  0  0  0  0  0  0  0  0
   11.6630  -39.2380  -34.4590 C   0  0  0  0  0  0  0  0  0  0  0  0
    8.7980  -35.8940  -36.1440 C   0  0  0  0  0  0  0  0  0  0  0  0
   10.7590  -34.3690  -32.4990 C   0  0  0  0  0  0  0  0  0  0  0  0
    5.6790  -35.6190  -39.1340 C   0  0  0  0  0  0  0  0  0  0  0  0
    5.3880  -35.2370  -35.6710 C   0  0  0  0  0  0  0  0  0  0  0  0
    5.9330  -34.3420  -34.5650 C   0  0  0  0  0  0  0  0  0  0  0  0
    4.1080  -34.6240  -35.9900 C   0  0  0  0  0  0  0  0  0  0  0  0
    7.5510  -35.3290  -36.2480 C   0  0  0  0  0  0  0  0  0  0  0  0
    6.1190  -35.5930  -37.9870 O   0  0  0  0  0  0  0  0  0  0  0  0
   10.9760  -36.4750  -34.8020 S   0  0  0  0  0  0  0  0  0  0  0  0
    8.7630  -36.5520  -33.6740 C   0  0  0  0  0  0  0  0  0  0  0  0
    9.3740  -33.8080  -32.7880 C   0  0  0  0  0  0  0  0  0  0  0  0
    6.3950  -35.3030  -36.7130 C   0  0  0  0  0  0  0  0  0  0  0  0
   11.3710  -31.9630  -29.4580 C   0  0  0  0  0  0  0  0  0  0  0  0
    4.8130  -33.6750  -34.4680 C   0  0  0  0  0  0  0  0  0  0  0  0
    9.2680  -35.6840  -34.3960 C   0  0  0  0  0  0  0  0  0  0  0  0
    7.1490  -32.9880  -32.7500 N   0  0  0  0  0  0  0  0  0  0  0  0
   10.5250  -32.6070  -30.6250 C   0  0  0  0  0  0  0  0  0  0  0  0
    8.7000  -32.9790  -32.0580 C   0  0  0  0  0  0  0  0  0  0  0  0
    8.5570  -34.4160  -33.7050 N   0  0  0  0  0  0  0  0  0  0  0  0
  1 22  2  0
  2  6  1  0
  4 23  1  0
  5 23  1  0
  7 21  1  0
  8  4  1  0
  9 14  1  0
 10 12  1  0
 10 11  1  0
 11 20  1  0
 11  1  1  0
 12 20  1  0
 13  7  1  0
 15  2  1  0
 15 21  1  0
 17  8  1  0
 17 24  1  0
 18 14  1  0
 18 13  1  0
 18 10  1  0
 19  3  2  0
 21 25  1  0
 21 16  1  0
 22 24  2  0
 23 19  1  0
 24  5  1  0
 25  1  1  0
 25 17  1  0
M  END
$$$$
