
     RDKit          3D

 22 24  0  0  0  0  0  0  0  0999 V2000
  -17.0280   -4.8980   26.1860 C   0  0  0  0  0  0  0  0  0  0  0  0
  -20.2460   -5.0140   23.8060 C   0  0  0  0  0  0  0  0  0  0  0  0
  -18.9950   -4.3790   24.5340 C   0  0  0  0  0  0  0  0  0  0  0  0
  -15.7050   -9.8760   27.1800 O   0  0  0  0  0  0  0  0  0  0  0  0
  -16.9180   -9.4870   29.2630 O   0  0  0  0  0  0  0  0  0  0  0  0
  -16.9520   -9.2910   27.7630 S   0  0  0  0  0  0  0  0  0  0  0  0
  -12.0230   -3.8270   27.2680 O   0  0  0  0  0  0  0  0  0  0  0  0
  -18.9330   -6.5110   25.7700 C   0  0  0  0  0  0  0  0  0  0  0  0
  -16.0330   -6.8550   27.4260 C   0  0  0  0  0  0  0  0  0  0  0  0
  -16.4610   -3.5630   25.9010 C   0  0  0  0  0  0  0  0  0  0  0  0
  -18.2730   -5.2760   25.5010 C   0  0  0  0  0  0  0  0  0  0  0  0
  -17.9610  -10.3250   27.0620 O   0  0  0  0  0  0  0  0  0  0  0  0
  -19.9450   -7.0110   24.7850 C   0  0  0  0  0  0  0  0  0  0  0  0
  -20.1560   -6.5540   23.6280 C   0  0  0  0  0  0  0  0  0  0  0  0
  -14.8980   -4.9750   26.8520 O   0  0  0  0  0  0  0  0  0  0  0  0
  -13.9260   -2.9330   26.4170 N   0  0  0  0  0  0  0  0  0  0  0  0
  -17.5240   -2.8670   25.3290 O   0  0  0  0  0  0  0  0  0  0  0  0
  -18.0810   -7.6300   26.1160 O   0  0  0  0  0  0  0  0  0  0  0  0
  -15.0120   -3.8180   26.1560 C   0  0  0  0  0  0  0  0  0  0  0  0
  -15.8660   -5.8470   26.3290 C   0  0  0  0  0  0  0  0  0  0  0  0
  -17.0700   -7.9290   27.0210 C   0  0  0  0  0  0  0  0  0  0  0  0
  -13.0440   -3.5590   26.9720 C   0  0  0  0  0  0  0  0  0  0  0  0
  1 11  1  0
  1 20  1  0
  2  3  1  0
  3 11  2  0
  4  6  1  0
  6  5  1  0
  8 13  1  0
  8 18  1  0
 10 17  1  0
 10 19  1  0
 10  1  1  0
 11  8  1  0
 12  6  1  0
 14  2  1  0
 14 13  1  0
 16 22  2  0
 18 21  1  0
 19 16  1  0
 19 15  1  0
 20 15  1  0
 20  9  1  0
 21  9  1  0
 21  6  1  0
 22  7  2  0
M  END
$$$$

     RDKit          3D

 51 53  0  0  0  0  0  0  0  0999 V2000
  -14.5680   -9.2020   29.1810 C   0  0  0  0  0  0  0  0  0  0  0  0
  -14.4020   -9.5590   31.8450 S   0  0  0  0  0  0  0  0  0  0  0  0
   -7.5680   -7.6820   27.4900 C   0  0  0  0  0  0  0  0  0  0  0  0
  -15.0080   -9.7150   30.4090 C   0  0  0  0  0  0  0  0  0  0  0  0
   -8.5020   -7.2190   28.4080 N   0  0  0  0  0  0  0  0  0  0  0  0
  -11.1160   -6.8530   28.8510 C   0  0  0  0  0  0  0  0  0  0  0  0
   -1.0310   -5.3850   28.4980 S   0  0  0  0  0  0  0  0  0  0  0  0
   -8.4540   -6.4310   30.0840 O   0  0  0  0  0  0  0  0  0  0  0  0
   -3.3270   -6.1210   26.6450 C   0  0  0  0  0  0  0  0  0  0  0  0
  -13.6190  -12.4800   25.3360 O   0  0  0  0  0  0  0  0  0  0  0  0
   -7.6420   -7.1850   26.3760 C   0  0  0  0  0  0  0  0  0  0  0  0
   -3.2240   -5.6380   25.2310 O   0  0  0  0  0  0  0  0  0  0  0  0
  -14.7780  -12.6040   27.1790 C   0  0  0  0  0  0  0  0  0  0  0  0
   -1.0550   -5.4470   26.6390 C   0  0  0  0  0  0  0  0  0  0  0  0
   -2.5380   -4.9560   28.8020 C   0  0  0  0  0  0  0  0  0  0  0  0
  -11.9230   -6.8250   27.7820 C   0  0  0  0  0  0  0  0  0  0  0  0
  -15.0330  -11.3580   28.0690 C   0  0  0  0  0  0  0  0  0  0  0  0
  -14.9330  -10.5970   25.0920 C   0  0  0  0  0  0  0  0  0  0  0  0
   -2.7670   -6.3140   32.8080 C   0  0  0  0  0  0  0  0  0  0  0  0
   -2.2880   -5.3810   27.2100 C   0  0  0  0  0  0  0  0  0  0  0  0
  -11.7510   -7.1990   26.7140 O   0  0  0  0  0  0  0  0  0  0  0  0
   -4.1090   -7.1310   27.4940 C   0  0  0  0  0  0  0  0  0  0  0  0
  -13.2120   -6.2450   28.1840 C   0  0  0  0  0  0  0  0  0  0  0  0
   -5.5150   -6.9570   27.2580 O   0  0  0  0  0  0  0  0  0  0  0  0
  -11.1320  -13.7260   23.7030 C   0  0  0  0  0  0  0  0  0  0  0  0
  -14.3530   -6.9990   27.8600 C   0  0  0  0  0  0  0  0  0  0  0  0
   -6.0650   -6.7120   26.0010 O   0  0  0  0  0  0  0  0  0  0  0  0
  -12.0520  -13.4350   23.0210 O   0  0  0  0  0  0  0  0  0  0  0  0
  -14.9180   -8.0470   28.3810 C   0  0  0  0  0  0  0  0  0  0  0  0
   -1.3650   -5.8200   30.8330 C   0  0  0  0  0  0  0  0  0  0  0  0
   -6.7680   -9.2200   26.0160 C   0  0  0  0  0  0  0  0  0  0  0  0
   -6.5530   -8.6030   27.2720 C   0  0  0  0  0  0  0  0  0  0  0  0
   -1.5540   -6.4510   32.2400 C   0  0  0  0  0  0  0  0  0  0  0  0
  -13.3660  -13.1730   23.0020 C   0  0  0  0  0  0  0  0  0  0  0  0
   -8.3420   -7.4860   29.5910 C   0  0  0  0  0  0  0  0  0  0  0  0
  -14.2560  -11.0640   32.5220 C   0  0  0  0  0  0  0  0  0  0  0  0
   -5.8100   -9.2050   28.0810 O   0  0  0  0  0  0  0  0  0  0  0  0
  -14.4900  -10.4060   24.0920 O   0  0  0  0  0  0  0  0  0  0  0  0
  -16.1210   -9.5410   25.6590 C   0  0  0  0  0  0  0  0  0  0  0  0
   -4.9900   -5.6120   32.6680 F   0  0  0  0  0  0  0  0  0  0  0  0
  -14.9060  -11.9380   25.7590 C   0  0  0  0  0  0  0  0  0  0  0  0
  -16.2710   -7.9770   27.5390 C   0  0  0  0  0  0  0  0  0  0  0  0
  -16.3890   -9.4540   27.0600 N   0  0  0  0  0  0  0  0  0  0  0  0
  -14.2810  -13.1680   24.3500 C   0  0  0  0  0  0  0  0  0  0  0  0
  -16.3950  -10.9020   27.6110 C   0  0  0  0  0  0  0  0  0  0  0  0
   -0.4600   -4.6840   31.3050 O   0  0  0  0  0  0  0  0  0  0  0  0
  -10.0040   -6.9550   28.0750 C   0  0  0  0  0  0  0  0  0  0  0  0
   -8.3150   -8.8220   29.8550 N   0  0  0  0  0  0  0  0  0  0  0  0
   -3.7890   -5.4220   30.8070 C   0  0  0  0  0  0  0  0  0  0  0  0
   -3.8550   -5.7850   32.1070 C   0  0  0  0  0  0  0  0  0  0  0  0
   -2.6140   -5.4060   30.1640 C   0  0  0  0  0  0  0  0  0  0  0  0
  1  4  1  0
  2 36  1  0
  3 11  1  0
  3  5  1  0
  4  2  1  0
  5 35  1  0
  7 15  1  0
  9 12  1  0
  9 20  1  0
  9 22  1  0
 13 17  1  0
 15 51  1  0
 16 23  1  0
 16  6  1  0
 18 39  1  0
 18 41  1  0
 20 14  1  0
 20  7  1  0
 20 15  1  0
 21 16  2  0
 24 22  1  0
 26 23  1  0
 26 29  1  0
 27 11  1  0
 27 24  1  0
 28 25  1  0
 29 42  1  0
 29  1  1  0
 30 46  1  0
 30 33  2  0
 31 32  1  0
 32  3  1  0
 32 37  2  0
 33 19  1  0
 34 28  1  0
 34 44  1  0
 35 48  1  0
 35  8  2  0
 38 18  2  0
 39 43  1  0
 41 10  1  0
 41 13  1  0
 43 42  1  0
 43 45  1  0
 44 10  1  0
 45 17  1  0
 47  5  1  0
 47  6  1  0
 49 50  1  0
 50 40  1  0
 50 19  2  0
 51 49  2  0
 51 30  1  0
M  END
$$$$

     RDKit          3D

 25 27  0  0  0  0  0  0  0  0999 V2000
  -11.7800   -2.6060   27.2150 O   0  0  0  0  0  0  0  0  0  0  0  0
  -17.8520   -7.4050   25.7540 C   0  0  0  0  0  0  0  0  0  0  0  0
   -5.3880   -6.9490   29.0700 Cl  0  0  0  0  0  0  0  0  0  0  0  0
   -5.3810   -7.4380   26.2040 O   0  0  0  0  0  0  0  0  0  0  0  0
   -5.3750   -5.9120   26.4310 C   0  0  0  0  0  0  0  0  0  0  0  0
   -9.7630   -3.4320   28.3000 C   0  0  0  0  0  0  0  0  0  0  0  0
   -3.8350   -7.8410   26.8950 S   0  0  0  0  0  0  0  0  0  0  0  0
  -11.0990   -3.5100   27.7270 C   0  0  0  0  0  0  0  0  0  0  0  0
   -7.8450   -4.2750   28.1900 C   0  0  0  0  0  0  0  0  0  0  0  0
  -11.9620   -4.5340   28.1210 N   0  0  0  0  0  0  0  0  0  0  0  0
  -16.4070   -7.2810   26.1440 C   0  0  0  0  0  0  0  0  0  0  0  0
   -3.1290   -6.2840   26.7730 C   0  0  0  0  0  0  0  0  0  0  0  0
   -3.8240   -8.2470   25.1260 C   0  0  0  0  0  0  0  0  0  0  0  0
  -13.1940   -6.3510   27.2140 O   0  0  0  0  0  0  0  0  0  0  0  0
   -5.8110   -5.5330   27.8380 N   0  0  0  0  0  0  0  0  0  0  0  0
  -14.3620   -5.8140   28.0690 C   0  0  0  0  0  0  0  0  0  0  0  0
   -8.1490   -6.6570   28.5350 C   0  0  0  0  0  0  0  0  0  0  0  0
  -16.2380   -6.0400   26.9660 O   0  0  0  0  0  0  0  0  0  0  0  0
  -15.5220   -6.2170   28.1300 O   0  0  0  0  0  0  0  0  0  0  0  0
   -9.3710   -5.8610   28.9370 C   0  0  0  0  0  0  0  0  0  0  0  0
  -13.2000   -5.0400   27.5420 C   0  0  0  0  0  0  0  0  0  0  0  0
   -2.6720   -9.2330   25.2260 C   0  0  0  0  0  0  0  0  0  0  0  0
   -3.9450   -5.5090   26.2700 C   0  0  0  0  0  0  0  0  0  0  0  0
   -9.0440   -4.4170   28.5180 N   0  0  0  0  0  0  0  0  0  0  0  0
   -7.3150   -5.7870   27.7310 C   0  0  0  0  0  0  0  0  0  0  0  0
  1  8  2  0
  2 11  1  0
  4  5  1  0
  4  7  1  0
  5 15  1  0
  6 24  1  0
  7 13  1  0
  8 10  1  0
  8  6  1  0
  9 24  1  0
 11 18  1  0
 12  7  1  0
 13 22  1  0
 14 21  1  0
 14 16  1  0
 15  3  1  0
 16 19  1  0
 17 20  1  0
 18 19  1  0
 21 16  1  0
 21 10  1  0
 23  5  1  0
 23 12  1  0
 24 20  1  0
 25 15  1  0
 25  9  1  0
 25 17  1  0
M  END
$$$$

     RDKit          3D

  3  2  0  0  0  0  0  0  0  0999 V2000
   -9.3510  -11.3600   27.1190 Br  0  0  0  0  0  0  0  0  0  0  0  0
   -9.6800  -11.3750   26.5960 Br  0  0  0  0  0  0  0  0  0  0  0  0
   -9.3030  -11.4490   26.7080 O   0  0  0  0  0  0  0  0  0  0  0  0
  2  3  1  0
  3  1  1  0
M  END
$$$$

     RDKit          3D

 23 22  0  0  0  0  0  0  0  0999 V2000
  -16.1490   -8.4440   24.7060 O   0  0  0  0  0  0  0  0  0  0  0  0
   -4.2460   -8.5530   26.6980 N   0  0  0  0  0  0  0  0  0  0  0  0
  -12.0680   -5.3390   27.8290 N   0  0  0  0  0  0  0  0  0  0  0  0
   -4.2210   -9.6830   25.6750 C   0  0  0  0  0  0  0  0  0  0  0  0
   -7.1900   -6.6630   27.8080 C   0  0  0  0  0  0  0  0  0  0  0  0
  -15.5990   -9.7200   24.9670 C   0  0  0  0  0  0  0  0  0  0  0  0
  -16.3230   -7.8570   25.9140 C   0  0  0  0  0  0  0  0  0  0  0  0
  -13.3830   -9.9770   23.5280 C   0  0  0  0  0  0  0  0  0  0  0  0
  -11.0280   -4.5000   28.5430 C   0  0  0  0  0  0  0  0  0  0  0  0
   -5.1210   -7.5450   26.6820 C   0  0  0  0  0  0  0  0  0  0  0  0
   -5.7750   -7.1660   27.9580 C   0  0  0  0  0  0  0  0  0  0  0  0
   -7.9110   -6.5830   29.0660 C   0  0  0  0  0  0  0  0  0  0  0  0
   -8.9300   -5.5070   28.7930 O   0  0  0  0  0  0  0  0  0  0  0  0
  -13.3710   -4.8930   27.9660 C   0  0  0  0  0  0  0  0  0  0  0  0
  -12.6360  -11.3110   23.6280 C   0  0  0  0  0  0  0  0  0  0  0  0
   -5.5780  -10.3640   23.6530 C   0  0  0  0  0  0  0  0  0  0  0  0
   -5.1330   -8.7670   24.5430 C   0  0  0  0  0  0  0  0  0  0  0  0
  -14.4350  -10.1120   24.5680 C   0  0  0  0  0  0  0  0  0  0  0  0
  -10.0710   -5.4740   29.1620 C   0  0  0  0  0  0  0  0  0  0  0  0
   -5.1240   -7.1640   28.9760 O   0  0  0  0  0  0  0  0  0  0  0  0
  -14.7000   -6.3500   26.4860 O   0  0  0  0  0  0  0  0  0  0  0  0
  -16.0570   -6.5340   26.0560 C   0  0  0  0  0  0  0  0  0  0  0  0
  -14.3270   -4.9470   26.7420 C   0  0  0  0  0  0  0  0  0  0  0  0
  1  6  1  0
  1  7  1  0
  3 14  1  0
  3  9  1  0
  4  2  1  0
  5 11  1  0
  5 12  1  0
  7 22  1  0
  8 15  1  0
  8 18  1  0
  9 19  1  0
 10  2  1  0
 10 11  1  0
 11 20  2  0
 13 12  1  0
 13 19  1  0
 16 17  1  0
 17  4  1  0
 18  6  1  0
 21 23  1  0
 22 21  1  0
 23 14  1  0
M  END
$$$$

     RDKit          3D

 28 32  0  0  0  0  0  0  0  0999 V2000
  -14.1980  -12.2100   24.9460 C   0  0  0  0  0  0  0  0  0  0  0  0
  -10.4840  -19.7830   25.7010 C   0  0  0  0  0  0  0  0  0  0  0  0
   -9.7000  -14.1860   24.2070 C   0  0  0  0  0  0  0  0  0  0  0  0
  -11.7170  -15.3290   27.3650 O   0  0  0  0  0  0  0  0  0  0  0  0
   -8.5370  -16.7360   24.1850 O   0  0  0  0  0  0  0  0  0  0  0  0
  -13.6530  -10.0090   24.0060 C   0  0  0  0  0  0  0  0  0  0  0  0
   -9.4840  -15.1820   24.5370 C   0  0  0  0  0  0  0  0  0  0  0  0
  -13.1670  -13.4970   24.9260 S   0  0  0  0  0  0  0  0  0  0  0  0
  -10.4160  -13.2820   24.4710 C   0  0  0  0  0  0  0  0  0  0  0  0
  -14.3580  -11.4030   23.8860 C   0  0  0  0  0  0  0  0  0  0  0  0
  -16.5140  -11.5470   25.4560 O   0  0  0  0  0  0  0  0  0  0  0  0
  -15.0510   -9.3290   24.8840 S   0  0  0  0  0  0  0  0  0  0  0  0
   -9.3250  -16.7620   26.5150 O   0  0  0  0  0  0  0  0  0  0  0  0
  -15.5850   -9.1680   21.7280 O   0  0  0  0  0  0  0  0  0  0  0  0
  -11.1620  -14.9880   26.1400 C   0  0  0  0  0  0  0  0  0  0  0  0
   -9.7110  -19.9920   27.0550 C   0  0  0  0  0  0  0  0  0  0  0  0
  -16.5330  -10.0840   27.2110 O   0  0  0  0  0  0  0  0  0  0  0  0
  -10.0370  -16.0080   25.7580 C   0  0  0  0  0  0  0  0  0  0  0  0
  -11.3290  -13.9370   25.3440 C   0  0  0  0  0  0  0  0  0  0  0  0
  -16.0790  -10.7240   24.3490 C   0  0  0  0  0  0  0  0  0  0  0  0
   -8.7440  -17.7770   25.2000 C   0  0  0  0  0  0  0  0  0  0  0  0
  -15.7840  -11.1300   26.6740 C   0  0  0  0  0  0  0  0  0  0  0  0
  -14.7610  -12.0550   22.5690 O   0  0  0  0  0  0  0  0  0  0  0  0
  -10.1390  -18.5130   25.0520 C   0  0  0  0  0  0  0  0  0  0  0  0
  -11.1900  -17.4890   25.1710 O   0  0  0  0  0  0  0  0  0  0  0  0
  -17.3430   -8.4890   23.4980 O   0  0  0  0  0  0  0  0  0  0  0  0
  -16.0150   -9.2640   23.1780 P   0  0  0  0  0  0  0  0  0  0  0  0
  -14.4540  -11.4530   26.2180 C   0  0  0  0  0  0  0  0  0  0  0  0
  1  8  1  0
  1 28  1  0
  2 16  1  0
  3  9  1  0
  3  7  2  0
  5  7  1  0
  5 21  1  0
  9 19  1  0
 10 23  1  0
 10  6  1  0
 10 20  1  0
 10  1  1  0
 11 22  1  0
 12  6  1  0
 15  4  1  0
 18  7  1  0
 18 15  1  0
 18 13  1  0
 19  8  1  0
 19 15  1  0
 20 12  1  0
 20 11  1  0
 21 24  1  0
 21 13  1  0
 22 17  1  0
 24 25  1  0
 24  2  1  0
 27 14  2  0
 27 26  1  0
 27 20  1  0
 27 12  1  0
 28 22  1  0
M  END
$$$$

     RDKit          3D

  5  4  0  0  0  0  0  0  0  0999 V2000
  -10.2090  -11.3420   27.8480 O   0  0  0  0  0  0  0  0  0  0  0  0
  -10.1810  -11.4740   27.4500 O   0  0  0  0  0  0  0  0  0  0  0  0
  -10.3830  -11.8350   28.4210 Br  0  0  0  0  0  0  0  0  0  0  0  0
  -10.6800  -11.0820   27.7510 Br  0  0  0  0  0  0  0  0  0  0  0  0
   -9.9140  -11.5040   28.1750 O   0  0  0  0  0  0  0  0  0  0  0  0
  1  5  1  0
  2  4  1  0
  2  1  1  0
  5  3  1  0
M  END
$$$$

     RDKit          3D

 25 29  0  0  0  0  0  0  0  0999 V2000
  -13.3680  -10.8210   24.3240 O   0  0  0  0  0  0  0  0  0  0  0  0
  -10.6310  -16.6830   24.4590 C   0  0  0  0  0  0  0  0  0  0  0  0
  -15.2040  -10.3360   22.3570 C   0  0  0  0  0  0  0  0  0  0  0  0
  -16.5550   -8.1220   24.6340 C   0  0  0  0  0  0  0  0  0  0  0  0
  -14.2080  -11.0240   21.9800 C   0  0  0  0  0  0  0  0  0  0  0  0
  -12.2300  -17.0260   26.2780 O   0  0  0  0  0  0  0  0  0  0  0  0
  -11.7920  -18.6570   24.5970 C   0  0  0  0  0  0  0  0  0  0  0  0
  -13.6870  -12.8780   25.0390 O   0  0  0  0  0  0  0  0  0  0  0  0
  -15.7790   -8.3520   25.7550 C   0  0  0  0  0  0  0  0  0  0  0  0
  -11.9380  -14.7470   23.7980 C   0  0  0  0  0  0  0  0  0  0  0  0
  -13.3970  -15.4880   23.7470 C   0  0  0  0  0  0  0  0  0  0  0  0
   -9.8820  -14.4350   23.9010 C   0  0  0  0  0  0  0  0  0  0  0  0
  -10.7450  -15.3790   24.0310 N   0  0  0  0  0  0  0  0  0  0  0  0
  -11.6360  -13.8700   25.0680 C   0  0  0  0  0  0  0  0  0  0  0  0
  -10.3010  -13.7250   24.7510 C   0  0  0  0  0  0  0  0  0  0  0  0
  -11.6540  -17.4130   25.4110 C   0  0  0  0  0  0  0  0  0  0  0  0
  -11.9270  -13.3790   23.6910 C   0  0  0  0  0  0  0  0  0  0  0  0
  -14.6420  -10.0090   24.5210 C   0  0  0  0  0  0  0  0  0  0  0  0
  -16.4650   -8.7300   23.5480 C   0  0  0  0  0  0  0  0  0  0  0  0
  -13.2340  -12.0790   23.9510 C   0  0  0  0  0  0  0  0  0  0  0  0
  -12.0400  -19.8530   25.3820 C   0  0  0  0  0  0  0  0  0  0  0  0
  -14.8330   -9.3320   25.7890 C   0  0  0  0  0  0  0  0  0  0  0  0
  -13.6810  -12.1000   22.6670 C   0  0  0  0  0  0  0  0  0  0  0  0
  -15.3890   -9.7160   23.3270 C   0  0  0  0  0  0  0  0  0  0  0  0
  -10.6100  -19.6420   24.7230 C   0  0  0  0  0  0  0  0  0  0  0  0
  1 18  1  0
  2 16  1  0
  3 24  1  0
  4  9  1  0
  5  3  1  0
  5 23  1  0
  7 25  1  0
  7 21  1  0
  7 16  1  0
  9 22  2  0
 10 11  1  0
 10 13  1  0
 10 14  1  0
 12 13  1  0
 12 15  1  0
 13  2  1  0
 14 15  1  0
 16  6  2  0
 17 10  1  0
 17 20  1  0
 17 14  1  0
 18 22  1  0
 19  4  2  0
 20  1  1  0
 20  8  1  0
 23 20  1  0
 24 19  1  0
 24 18  2  0
 25 21  1  0
M  END
$$$$

     RDKit          3D

 59 63  0  0  0  0  0  0  0  0999 V2000
  -12.7340  -13.7770   25.2880 C   0  0  0  0  0  0  0  0  0  0  0  0
  -12.0040  -13.7130   22.8090 S   0  0  0  0  0  0  0  0  0  0  0  0
  -12.9950   -6.3880   27.3500 O   0  0  0  0  0  0  0  0  0  0  0  0
  -14.1980   -7.3510   27.3550 P   0  0  0  0  0  0  0  0  0  0  0  0
  -10.4320   -5.7980   29.1970 C   0  0  0  0  0  0  0  0  0  0  0  0
  -14.3370  -13.1430   27.0360 C   0  0  0  0  0  0  0  0  0  0  0  0
  -15.3110   -7.4880   26.3470 O   0  0  0  0  0  0  0  0  0  0  0  0
  -12.8350  -11.3160   22.9910 C   0  0  0  0  0  0  0  0  0  0  0  0
   -7.7960   -6.3120   28.9750 C   0  0  0  0  0  0  0  0  0  0  0  0
   -9.6010   -5.6900   30.4780 C   0  0  0  0  0  0  0  0  0  0  0  0
  -15.3280  -10.3730   26.8890 C   0  0  0  0  0  0  0  0  0  0  0  0
   -5.4590  -16.7680   26.4790 N   0  0  0  0  0  0  0  0  0  0  0  0
   -5.3730   -6.6310   29.2290 O   0  0  0  0  0  0  0  0  0  0  0  0
   -4.1540   -3.3020   26.8460 C   0  0  0  0  0  0  0  0  0  0  0  0
  -15.2450   -9.4480   28.1130 C   0  0  0  0  0  0  0  0  0  0  0  0
  -12.3090  -12.2430   21.9780 C   0  0  0  0  0  0  0  0  0  0  0  0
  -10.4420   -3.6500   28.5120 O   0  0  0  0  0  0  0  0  0  0  0  0
  -11.8490  -14.6750   26.0470 C   0  0  0  0  0  0  0  0  0  0  0  0
  -15.3910  -11.8780   27.0220 C   0  0  0  0  0  0  0  0  0  0  0  0
  -14.2690   -8.5240   28.3470 O   0  0  0  0  0  0  0  0  0  0  0  0
   -4.5630   -5.1740   27.2410 O   0  0  0  0  0  0  0  0  0  0  0  0
  -12.9480  -11.9490   24.0980 O   0  0  0  0  0  0  0  0  0  0  0  0
   -6.2130   -4.8890   27.5550 C   0  0  0  0  0  0  0  0  0  0  0  0
  -12.7030   -4.1970   29.0380 C   0  0  0  0  0  0  0  0  0  0  0  0
   -5.4840   -7.2970   26.2460 C   0  0  0  0  0  0  0  0  0  0  0  0
  -13.7840  -13.1710   26.0180 O   0  0  0  0  0  0  0  0  0  0  0  0
  -12.1420  -15.1860   27.0620 O   0  0  0  0  0  0  0  0  0  0  0  0
  -16.1130   -8.3330   19.6580 O   0  0  0  0  0  0  0  0  0  0  0  0
   -8.0770   -5.4170   30.2660 C   0  0  0  0  0  0  0  0  0  0  0  0
  -10.2150  -16.5540   25.8540 C   0  0  0  0  0  0  0  0  0  0  0  0
   -8.2560  -15.3900   24.8940 C   0  0  0  0  0  0  0  0  0  0  0  0
   -4.2270   -5.8950   24.5080 C   0  0  0  0  0  0  0  0  0  0  0  0
   -7.1190   -3.9330   27.6600 O   0  0  0  0  0  0  0  0  0  0  0  0
  -14.0190  -10.6470   21.4840 C   0  0  0  0  0  0  0  0  0  0  0  0
  -14.1050   -5.7320   27.7420 C   0  0  0  0  0  0  0  0  0  0  0  0
  -13.1290  -10.1290   22.4480 C   0  0  0  0  0  0  0  0  0  0  0  0
   -8.8500  -16.2390   25.3130 C   0  0  0  0  0  0  0  0  0  0  0  0
   -5.0880   -5.6690   25.7530 C   0  0  0  0  0  0  0  0  0  0  0  0
  -10.6490   -4.7620   28.6740 C   0  0  0  0  0  0  0  0  0  0  0  0
  -14.6620  -10.1000   20.3180 C   0  0  0  0  0  0  0  0  0  0  0  0
   -8.1770  -17.8520   25.5210 C   0  0  0  0  0  0  0  0  0  0  0  0
  -11.9800   -5.1040   28.7090 N   0  0  0  0  0  0  0  0  0  0  0  0
  -10.9060  -15.4820   25.2380 N   0  0  0  0  0  0  0  0  0  0  0  0
  -10.8120  -17.8950   25.3700 C   0  0  0  0  0  0  0  0  0  0  0  0
   -6.7550  -15.5180   24.5990 C   0  0  0  0  0  0  0  0  0  0  0  0
   -6.4770   -6.3640   28.2230 C   0  0  0  0  0  0  0  0  0  0  0  0
   -5.0670   -4.7370   27.0320 C   0  0  0  0  0  0  0  0  0  0  0  0
   -4.5640   -7.9760   25.1800 O   0  0  0  0  0  0  0  0  0  0  0  0
  -15.3990   -8.8470   20.7450 C   0  0  0  0  0  0  0  0  0  0  0  0
  -14.1960   -3.8190   28.8430 C   0  0  0  0  0  0  0  0  0  0  0  0
  -12.5170  -13.1660   24.0460 C   0  0  0  0  0  0  0  0  0  0  0  0
   -5.9220  -15.9070   25.7270 C   0  0  0  0  0  0  0  0  0  0  0  0
   -6.5000   -7.1850   26.9040 C   0  0  0  0  0  0  0  0  0  0  0  0
   -9.3510  -18.5770   25.0890 C   0  0  0  0  0  0  0  0  0  0  0  0
  -12.6880  -11.6250   20.7500 O   0  0  0  0  0  0  0  0  0  0  0  0
  -14.8500   -2.8810   29.8320 C   0  0  0  0  0  0  0  0  0  0  0  0
   -3.4320   -7.2080   24.6270 C   0  0  0  0  0  0  0  0  0  0  0  0
  -14.9320   -5.1270   28.7870 C   0  0  0  0  0  0  0  0  0  0  0  0
  -13.8970  -10.3200   19.0610 O   0  0  0  0  0  0  0  0  0  0  0  0
  1 26  1  0
  1 18  1  0
  2 51  1  0
  3  4  1  0
  3 35  1  0
  4  7  2  0
  4 35  1  0
  4 20  1  0
  5 10  1  0
  8 22  1  0
  9 29  1  0
 11 19  1  0
 11 15  1  0
 15 20  1  0
 16  2  1  0
 16  8  2  0
 17 39  2  0
 18 27  2  0
 19  6  1  0
 23 33  1  0
 23 46  1  0
 25 53  1  0
 26  6  1  0
 28 49  1  0
 29 10  1  0
 30 43  1  0
 31 37  2  3
 32 57  1  0
 32 38  1  0
 34 40  1  0
 34 36  1  0
 35 58  1  0
 36  8  1  0
 37 41  1  0
 37 30  1  0
 38 47  1  0
 39 42  1  0
 39  5  1  0
 40 59  1  0
 40 49  1  0
 42 24  1  0
 43 18  1  0
 44 30  1  0
 45 31  1  0
 45 52  1  0
 46  9  1  0
 46 13  1  0
 47 14  1  0
 47 21  1  0
 47 23  1  0
 48 25  1  0
 50 24  1  0
 50 56  1  0
 51 22  1  0
 51  1  1  0
 52 12  2  0
 53 46  1  0
 54 44  1  0
 54 41  1  0
 55 34  1  0
 55 16  1  0
 57 48  1  0
 58 50  1  0
M  END
$$$$

     RDKit          3D

 64 69  0  0  0  0  0  0  0  0999 V2000
  -13.8060  -10.6080   22.8730 C   0  0  0  0  0  0  0  0  0  0  0  0
  -15.1020   -9.9430   24.2570 C   0  0  0  0  0  0  0  0  0  0  0  0
   -9.0650  -14.0760   22.4710 N   0  0  0  0  0  0  0  0  0  0  0  0
  -11.5910   -6.0380   28.9980 C   0  0  0  0  0  0  0  0  0  0  0  0
   -3.2730  -10.0040   23.0640 C   0  0  0  0  0  0  0  0  0  0  0  0
   -6.9960   -6.1270   29.9090 C   0  0  0  0  0  0  0  0  0  0  0  0
  -13.9880  -11.6240   23.3890 C   0  0  0  0  0  0  0  0  0  0  0  0
   -4.1470   -8.3360   25.2230 C   0  0  0  0  0  0  0  0  0  0  0  0
   -3.7630  -11.3760   22.8410 C   0  0  0  0  0  0  0  0  0  0  0  0
  -17.9780  -14.5160   27.8270 C   0  0  0  0  0  0  0  0  0  0  0  0
  -16.1150   -9.4150   25.9790 C   0  0  0  0  0  0  0  0  0  0  0  0
   -4.0230   -7.8220   26.6610 C   0  0  0  0  0  0  0  0  0  0  0  0
  -15.2210  -10.6540   25.5350 C   0  0  0  0  0  0  0  0  0  0  0  0
  -12.5090   -6.6060   29.9720 C   0  0  0  0  0  0  0  0  0  0  0  0
   -2.4480   -7.8280   27.3570 C   0  0  0  0  0  0  0  0  0  0  0  0
   -6.0130   -7.0680   27.9480 O   0  0  0  0  0  0  0  0  0  0  0  0
  -11.7220  -12.7840   20.6340 C   0  0  0  0  0  0  0  0  0  0  0  0
   -8.5950   -5.7760   30.2300 C   0  0  0  0  0  0  0  0  0  0  0  0
  -18.4010  -13.7240   26.5870 N   0  0  0  0  0  0  0  0  0  0  0  0
   -4.5060   -9.0680   27.1620 O   0  0  0  0  0  0  0  0  0  0  0  0
   -1.1120   -8.0030   26.8030 C   0  0  0  0  0  0  0  0  0  0  0  0
   -9.6120   -4.2690   30.0100 O   0  0  0  0  0  0  0  0  0  0  0  0
   -5.5190   -8.5200   24.7610 C   0  0  0  0  0  0  0  0  0  0  0  0
   -6.5470   -4.8090   27.8190 O   0  0  0  0  0  0  0  0  0  0  0  0
  -10.2350  -14.5300   22.2130 C   0  0  0  0  0  0  0  0  0  0  0  0
  -19.5410  -13.1100   26.5880 C   0  0  0  0  0  0  0  0  0  0  0  0
   -1.6990   -9.0720   24.5040 C   0  0  0  0  0  0  0  0  0  0  0  0
  -12.8460   -5.2580   30.7870 C   0  0  0  0  0  0  0  0  0  0  0  0
   -6.6430  -13.9300   23.2320 O   0  0  0  0  0  0  0  0  0  0  0  0
  -11.1290   -5.7190   31.3380 O   0  0  0  0  0  0  0  0  0  0  0  0
   -5.2260  -12.4230   24.7760 C   0  0  0  0  0  0  0  0  0  0  0  0
  -10.3550   -5.5430   29.9970 C   0  0  0  0  0  0  0  0  0  0  0  0
   -4.7690   -6.8020   27.2480 C   0  0  0  0  0  0  0  0  0  0  0  0
  -10.6550  -15.5570   22.4400 O   0  0  0  0  0  0  0  0  0  0  0  0
   -5.4850   -4.4520   27.3410 O   0  0  0  0  0  0  0  0  0  0  0  0
   -0.0910   -6.2250   26.3760 O   0  0  0  0  0  0  0  0  0  0  0  0
  -13.4610   -3.3840   32.4510 O   0  0  0  0  0  0  0  0  0  0  0  0
  -15.7170   -6.8670   26.1360 C   0  0  0  0  0  0  0  0  0  0  0  0
   -0.0050   -7.1610   26.9570 C   0  0  0  0  0  0  0  0  0  0  0  0
   -5.1130  -12.1800   23.2500 C   0  0  0  0  0  0  0  0  0  0  0  0
   -4.2360   -5.6790   28.0250 C   0  0  0  0  0  0  0  0  0  0  0  0
   -5.3650  -10.0750   24.5310 O   0  0  0  0  0  0  0  0  0  0  0  0
  -15.7540   -7.9760   25.4500 C   0  0  0  0  0  0  0  0  0  0  0  0
   -7.2870  -15.5490   22.5420 O   0  0  0  0  0  0  0  0  0  0  0  0
  -18.2350  -11.7350   24.2980 O   0  0  0  0  0  0  0  0  0  0  0  0
   -7.7010  -14.5490   22.8330 C   0  0  0  0  0  0  0  0  0  0  0  0
  -17.3290  -12.9330   26.1450 C   0  0  0  0  0  0  0  0  0  0  0  0
  -11.4710  -13.5350   21.8960 C   0  0  0  0  0  0  0  0  0  0  0  0
   -6.7870   -6.2100   28.4450 C   0  0  0  0  0  0  0  0  0  0  0  0
  -15.8140  -11.2840   24.4610 C   0  0  0  0  0  0  0  0  0  0  0  0
   -2.9290   -9.2050   24.2380 C   0  0  0  0  0  0  0  0  0  0  0  0
  -13.8050   -4.6330   29.8300 O   0  0  0  0  0  0  0  0  0  0  0  0
   -0.9590   -8.6280   25.4780 O   0  0  0  0  0  0  0  0  0  0  0  0
  -13.9040   -7.0510   27.8800 C   0  0  0  0  0  0  0  0  0  0  0  0
  -19.2660  -11.3970   23.7860 C   0  0  0  0  0  0  0  0  0  0  0  0
  -15.2630  -12.5640   23.8330 C   0  0  0  0  0  0  0  0  0  0  0  0
  -17.2500  -12.4260   24.9820 C   0  0  0  0  0  0  0  0  0  0  0  0
   -4.4490  -11.1540   25.2800 C   0  0  0  0  0  0  0  0  0  0  0  0
  -13.5390  -12.0010   21.9210 C   0  0  0  0  0  0  0  0  0  0  0  0
  -12.2830   -4.0560   31.5570 C   0  0  0  0  0  0  0  0  0  0  0  0
  -13.6820   -7.1340   29.3900 C   0  0  0  0  0  0  0  0  0  0  0  0
   -5.6010  -13.5570   22.6260 C   0  0  0  0  0  0  0  0  0  0  0  0
  -12.5970  -11.8390   20.9870 C   0  0  0  0  0  0  0  0  0  0  0  0
  -14.8990   -7.4550   27.1130 C   0  0  0  0  0  0  0  0  0  0  0  0
  2 50  1  0
  3 46  2  0
  7  1  1  0
  7 56  1  0
  8 23  1  0
  8 12  1  0
  9  5  1  0
  9 40  1  0
 12 20  1  0
 12 33  1  0
 12 15  1  0
 13  2  1  0
 13 11  1  0
 14  4  1  0
 14 28  1  0
 16 49  1  0
 17 63  1  0
 17 48  1  0
 18  6  1  0
 19 26  1  0
 19 10  1  0
 21 39  1  0
 21 15  1  0
 22 18  1  0
 25 34  2  0
 25  3  2  0
 27 53  1  0
 28 52  1  0
 28 30  1  0
 28 60  1  0
 31 58  1  0
 32  4  1  0
 32 22  1  0
 32 18  1  0
 32 30  1  0
 33 16  1  0
 33 41  1  0
 35 24  1  0
 36 39  1  0
 38 64  1  0
 40 62  1  0
 40 31  1  0
 42 23  1  0
 42 58  1  0
 43 11  1  0
 43 38  1  0
 44 46  2  0
 45 57  1  0
 46 29  1  0
 47 19  1  0
 48 25  1  0
 49 24  1  0
 49  6  1  0
 50 57  1  0
 50 13  1  0
 51  5  1  0
 51 27  1  0
 51  8  1  0
 53 21  1  0
 54 61  2  3
 55 45  1  0
 56 50  1  0
 57 47  1  0
 59  7  1  0
 60 37  1  0
 61 14  1  0
 62 29  1  0
 63 59  1  0
 64 54  1  0
M  END
$$$$

     RDKit          3D

 39 42  0  0  0  0  0  0  0  0999 V2000
  -14.7440   -3.8480   28.8900 C   0  0  0  0  0  0  0  0  0  0  0  0
  -17.0820   -7.1750   25.3670 C   0  0  0  0  0  0  0  0  0  0  0  0
  -13.4910   -3.2540   29.7210 C   0  0  0  0  0  0  0  0  0  0  0  0
  -14.5470  -11.7040   24.7140 C   0  0  0  0  0  0  0  0  0  0  0  0
  -15.4020   -2.8980   28.1200 C   0  0  0  0  0  0  0  0  0  0  0  0
  -19.7400   -8.1170   24.2920 C   0  0  0  0  0  0  0  0  0  0  0  0
  -15.1390  -10.0840   28.3290 C   0  0  0  0  0  0  0  0  0  0  0  0
  -15.4250   -9.0670   25.5570 C   0  0  0  0  0  0  0  0  0  0  0  0
  -12.4580  -13.2950   25.1400 O   0  0  0  0  0  0  0  0  0  0  0  0
   -6.1620  -14.0240   23.4130 C   0  0  0  0  0  0  0  0  0  0  0  0
  -12.6560   -3.3210   27.1840 C   0  0  0  0  0  0  0  0  0  0  0  0
  -14.7130   -7.4630   28.4410 C   0  0  0  0  0  0  0  0  0  0  0  0
  -12.0300  -13.7360   23.8880 C   0  0  0  0  0  0  0  0  0  0  0  0
  -14.9730   -4.2570   27.3320 C   0  0  0  0  0  0  0  0  0  0  0  0
  -11.7000  -12.6110   23.1230 F   0  0  0  0  0  0  0  0  0  0  0  0
  -18.0640   -8.1180   23.7670 C   0  0  0  0  0  0  0  0  0  0  0  0
  -13.4730   -4.6510   26.9750 C   0  0  0  0  0  0  0  0  0  0  0  0
   -8.3550  -14.0050   24.2440 N   0  0  0  0  0  0  0  0  0  0  0  0
  -20.6730   -8.2480   25.0350 C   0  0  0  0  0  0  0  0  0  0  0  0
  -15.4100   -8.4360   27.9780 C   0  0  0  0  0  0  0  0  0  0  0  0
   -5.6410  -12.4500   23.7510 C   0  0  0  0  0  0  0  0  0  0  0  0
  -15.0960   -6.7040   27.2270 C   0  0  0  0  0  0  0  0  0  0  0  0
  -15.3420  -11.0100   26.9820 C   0  0  0  0  0  0  0  0  0  0  0  0
   -9.6880  -13.7900   24.8040 C   0  0  0  0  0  0  0  0  0  0  0  0
  -10.7830  -14.5090   24.1120 C   0  0  0  0  0  0  0  0  0  0  0  0
  -12.3200   -3.1510   28.6200 C   0  0  0  0  0  0  0  0  0  0  0  0
  -13.4100  -12.0850   24.8600 C   0  0  0  0  0  0  0  0  0  0  0  0
  -20.3310   -7.1170   22.7280 C   0  0  0  0  0  0  0  0  0  0  0  0
  -15.4190   -8.2360   26.5530 C   0  0  0  0  0  0  0  0  0  0  0  0
   -7.0520  -14.5950   24.5050 C   0  0  0  0  0  0  0  0  0  0  0  0
  -15.2090  -10.4890   25.5880 C   0  0  0  0  0  0  0  0  0  0  0  0
  -15.9480   -8.8480   24.3590 O   0  0  0  0  0  0  0  0  0  0  0  0
   -6.0910  -14.6330   25.7670 C   0  0  0  0  0  0  0  0  0  0  0  0
  -17.2900   -7.9180   24.3320 C   0  0  0  0  0  0  0  0  0  0  0  0
  -17.9100   -7.7500   22.3010 C   0  0  0  0  0  0  0  0  0  0  0  0
  -15.7790   -5.3100   27.6320 C   0  0  0  0  0  0  0  0  0  0  0  0
  -13.3590  -14.1250   23.1600 C   0  0  0  0  0  0  0  0  0  0  0  0
  -12.6120   -2.6430   26.1890 O   0  0  0  0  0  0  0  0  0  0  0  0
   -4.5030  -12.0940   23.0420 N   0  0  0  0  0  0  0  0  0  0  0  0
  1  5  1  0
  1  3  1  0
  4 27  1  0
  4 31  1  0
  6 19  2  0
  8 32  1  0
  8 31  1  0
  8 29  1  0
 10 21  1  0
 10 30  1  0
 11 26  1  0
 13 37  1  0
 13 25  1  0
 13  9  1  0
 14 36  1  0
 14  5  1  0
 14  1  1  0
 15 13  1  0
 16 35  1  0
 16  6  1  0
 16 34  1  0
 17 11  1  0
 17 14  1  0
 18 30  1  0
 18 24  1  0
 20  7  1  0
 20 12  1  0
 22 36  1  0
 22 12  1  0
 23  7  1  0
 25 24  1  0
 26  3  1  0
 27  9  1  0
 28  6  1  0
 29 22  1  0
 29 20  1  0
 30 33  1  0
 31 23  1  0
 34 32  1  0
 34  2  2  0
 38 11  2  0
 39 21  1  0
M  END
$$$$

     RDKit          3D

 11 12  0  0  0  0  0  0  0  0999 V2000
  -15.0480   -8.3380   26.5040 C   0  0  0  0  0  0  0  0  0  0  0  0
  -14.0240   -9.6350   23.9710 C   0  0  0  0  0  0  0  0  0  0  0  0
  -14.6120  -10.0610   21.8510 N   0  0  0  0  0  0  0  0  0  0  0  0
  -16.5560   -8.9320   24.8110 C   0  0  0  0  0  0  0  0  0  0  0  0
  -12.6230   -9.9930   20.5410 C   0  0  0  0  0  0  0  0  0  0  0  0
  -16.2580   -9.3740   23.8630 N   0  0  0  0  0  0  0  0  0  0  0  0
  -12.6400  -10.2010   23.1710 S   0  0  0  0  0  0  0  0  0  0  0  0
  -15.0160   -9.7100   23.0850 C   0  0  0  0  0  0  0  0  0  0  0  0
  -15.3170   -8.4180   25.5200 C   0  0  0  0  0  0  0  0  0  0  0  0
  -14.2480   -9.4470   25.2090 O   0  0  0  0  0  0  0  0  0  0  0  0
  -13.4230  -10.1310   21.7670 C   0  0  0  0  0  0  0  0  0  0  0  0
  2  8  1  0
  2 10  1  0
  3  8  2  0
  4  9  1  0
  5 11  1  0
  6  4  1  0
  7  2  1  0
  8  6  2  0
  9  1  1  0
 10  9  1  0
 11  3  2  0
 11  7  1  0
M  END
$$$$

     RDKit          3D

 18 21  0  0  0  0  0  0  0  0999 V2000
   -5.8610   -8.2400   28.7860 O   0  0  0  0  0  0  0  0  0  0  0  0
   -6.3000   -7.5710   27.7480 C   0  0  0  0  0  0  0  0  0  0  0  0
  -13.1090   -7.2170   27.2490 C   0  0  0  0  0  0  0  0  0  0  0  0
  -12.4200   -5.7280   28.6660 C   0  0  0  0  0  0  0  0  0  0  0  0
  -11.1620   -6.3230   29.4920 C   0  0  0  0  0  0  0  0  0  0  0  0
   -9.9160   -6.2210   28.6280 C   0  0  0  0  0  0  0  0  0  0  0  0
   -9.2930   -5.0290   29.6380 C   0  0  0  0  0  0  0  0  0  0  0  0
  -11.1970   -5.6520   29.6360 C   0  0  0  0  0  0  0  0  0  0  0  0
   -7.1280   -6.4950   28.1740 N   0  0  0  0  0  0  0  0  0  0  0  0
  -14.3070   -6.0240   27.4760 C   0  0  0  0  0  0  0  0  0  0  0  0
   -7.6520   -5.3740   27.8210 C   0  0  0  0  0  0  0  0  0  0  0  0
   -5.8380   -7.6540   26.5690 O   0  0  0  0  0  0  0  0  0  0  0  0
   -5.8320   -7.3130   29.9110 C   0  0  0  0  0  0  0  0  0  0  0  0
   -8.8190   -5.0480   28.3380 C   0  0  0  0  0  0  0  0  0  0  0  0
  -14.0430   -7.1170   26.5060 C   0  0  0  0  0  0  0  0  0  0  0  0
   -8.5590   -5.4080   31.1810 C   0  0  0  0  0  0  0  0  0  0  0  0
  -12.1260   -7.0230   28.5260 C   0  0  0  0  0  0  0  0  0  0  0  0
  -10.0390   -5.3730   30.9100 C   0  0  0  0  0  0  0  0  0  0  0  0
  1 13  1  0
  2  9  1  0
  2  1  1  0
  3 17  1  0
  4  8  1  0
  5  8  1  0
  6  5  1  0
  6  7  1  0
  7 18  1  0
  7 16  1  0
  8 18  1  0
 11  9  1  0
 11 14  1  0
 12  2  2  0
 14  6  1  0
 14  7  1  0
 15  3  1  0
 15 10  1  0
 17  4  1  0
 17  5  1  0
 18 16  1  0
M  END
$$$$

     RDKit          3D

 12 12  0  0  0  0  0  0  0  0999 V2000
  -10.5300   -5.7420   26.9300 O   0  0  0  0  0  0  0  0  0  0  0  0
  -12.8590   -7.5170   25.1180 C   0  0  0  0  0  0  0  0  0  0  0  0
  -11.6530   -7.7500   24.3210 C   0  0  0  0  0  0  0  0  0  0  0  0
  -13.8740   -8.3710   24.5860 O   0  0  0  0  0  0  0  0  0  0  0  0
   -6.6920   -6.7830   24.9520 S   0  0  0  0  0  0  0  0  0  0  0  0
  -13.1910   -6.3820   26.2200 S   0  0  0  0  0  0  0  0  0  0  0  0
   -8.2100   -6.1490   25.4860 C   0  0  0  0  0  0  0  0  0  0  0  0
  -10.2300   -5.9740   25.5980 C   0  0  0  0  0  0  0  0  0  0  0  0
  -13.4550   -9.4780   23.7900 C   0  0  0  0  0  0  0  0  0  0  0  0
   -7.0410   -6.8370   23.3840 C   0  0  0  0  0  0  0  0  0  0  0  0
  -10.6520   -6.7750   24.6440 O   0  0  0  0  0  0  0  0  0  0  0  0
   -9.0920   -6.3920   26.0670 C   0  0  0  0  0  0  0  0  0  0  0  0
  2  6  2  0
  3 11  1  0
  3  2  1  0
  4  2  1  0
  5  7  1  0
  8 11  1  0
  8 12  1  0
  8  1  1  0
  9  4  1  0
 10  5  1  0
 12  7  1  0
 12  1  1  0
M  END
$$$$

     RDKit          3D

 73 83  0  0  0  0  0  0  0  0999 V2000
   -4.5600  -12.9300   27.4420 C   0  0  0  0  0  0  0  0  0  0  0  0
  -11.4840  -10.9730   17.6210 C   0  0  0  0  0  0  0  0  0  0  0  0
   -9.2130   -1.2200   27.8800 C   0  0  0  0  0  0  0  0  0  0  0  0
  -12.4410  -10.3640   18.6600 C   0  0  0  0  0  0  0  0  0  0  0  0
   -1.7700  -14.7330   25.7700 C   0  0  0  0  0  0  0  0  0  0  0  0
  -11.5090   -6.4820   29.5780 C   0  0  0  0  0  0  0  0  0  0  0  0
  -11.5220  -14.1660   23.0270 C   0  0  0  0  0  0  0  0  0  0  0  0
  -10.2800  -14.6310   22.3350 C   0  0  0  0  0  0  0  0  0  0  0  0
   -5.8820   -7.0960   28.2410 C   0  0  0  0  0  0  0  0  0  0  0  0
  -14.9080  -11.2650   27.0940 C   0  0  0  0  0  0  0  0  0  0  0  0
   -3.4530  -13.8740   25.5170 C   0  0  0  0  0  0  0  0  0  0  0  0
  -10.7380  -13.6430   18.2370 C   0  0  0  0  0  0  0  0  0  0  0  0
  -13.1790  -10.4020   21.2640 C   0  0  0  0  0  0  0  0  0  0  0  0
  -14.3440  -10.4000   22.8580 C   0  0  0  0  0  0  0  0  0  0  0  0
   -5.0160  -14.0670   27.6260 O   0  0  0  0  0  0  0  0  0  0  0  0
   -8.0150   -4.8910   28.0430 C   0  0  0  0  0  0  0  0  0  0  0  0
   -4.7490  -11.3510   24.9140 C   0  0  0  0  0  0  0  0  0  0  0  0
  -12.1450  -12.9700   22.3050 N   0  0  0  0  0  0  0  0  0  0  0  0
   -6.8840   -5.3970   27.1460 C   0  0  0  0  0  0  0  0  0  0  0  0
  -15.4800   -8.9950   29.2060 C   0  0  0  0  0  0  0  0  0  0  0  0
  -13.9840  -13.1540   23.8160 O   0  0  0  0  0  0  0  0  0  0  0  0
   -3.8600  -12.4040   26.1110 C   0  0  0  0  0  0  0  0  0  0  0  0
  -16.1000   -8.5510   30.4130 O   0  0  0  0  0  0  0  0  0  0  0  0
  -15.7480   -8.0700   28.0120 C   0  0  0  0  0  0  0  0  0  0  0  0
   -6.7300   -0.9570   27.6220 C   0  0  0  0  0  0  0  0  0  0  0  0
  -12.4540  -10.9940   19.8680 C   0  0  0  0  0  0  0  0  0  0  0  0
   -7.9450   -3.3450   28.3800 C   0  0  0  0  0  0  0  0  0  0  0  0
  -15.6110  -10.6260   25.0410 C   0  0  0  0  0  0  0  0  0  0  0  0
   -9.2040   -2.7120   27.7440 C   0  0  0  0  0  0  0  0  0  0  0  0
  -13.3320   -7.6280   28.7230 O   0  0  0  0  0  0  0  0  0  0  0  0
  -17.2500  -10.9490   26.5530 O   0  0  0  0  0  0  0  0  0  0  0  0
  -14.8930   -8.1220   25.9450 O   0  0  0  0  0  0  0  0  0  0  0  0
  -14.7440   -9.1180   24.8920 O   0  0  0  0  0  0  0  0  0  0  0  0
   -5.4280   -8.9880   29.9150 N   0  0  0  0  0  0  0  0  0  0  0  0
  -13.4040  -12.5490   22.8640 C   0  0  0  0  0  0  0  0  0  0  0  0
   -8.1040   -0.3460   27.5990 N   0  0  0  0  0  0  0  0  0  0  0  0
  -10.7810  -12.2140   17.6490 C   0  0  0  0  0  0  0  0  0  0  0  0
  -13.4510   -5.2550   28.5720 C   0  0  0  0  0  0  0  0  0  0  0  0
  -10.4520  -14.4650   19.5550 C   0  0  0  0  0  0  0  0  0  0  0  0
  -11.7850  -12.2740   20.1560 C   0  0  0  0  0  0  0  0  0  0  0  0
   -8.8570   -5.7380   28.7480 O   0  0  0  0  0  0  0  0  0  0  0  0
   -6.5690   -6.4800   27.8510 N   0  0  0  0  0  0  0  0  0  0  0  0
   -6.6490   -5.1360   26.0220 O   0  0  0  0  0  0  0  0  0  0  0  0
   -6.7810   -6.6270   28.8120 N   0  0  0  0  0  0  0  0  0  0  0  0
   -2.6970  -14.2670   26.5590 O   0  0  0  0  0  0  0  0  0  0  0  0
  -13.2660  -11.1770   22.4630 C   0  0  0  0  0  0  0  0  0  0  0  0
   -5.2080  -11.0610   28.7010 C   0  0  0  0  0  0  0  0  0  0  0  0
  -15.9930  -10.4570   26.2760 C   0  0  0  0  0  0  0  0  0  0  0  0
   -9.3530   -5.3030   29.9360 C   0  0  0  0  0  0  0  0  0  0  0  0
  -15.1190  -10.2460   29.1750 O   0  0  0  0  0  0  0  0  0  0  0  0
  -10.6790   -5.9310   30.3530 C   0  0  0  0  0  0  0  0  0  0  0  0
  -15.8550   -8.8610   26.7830 C   0  0  0  0  0  0  0  0  0  0  0  0
  -12.9100   -6.4320   29.3480 C   0  0  0  0  0  0  0  0  0  0  0  0
   -6.6390   -2.4310   28.0820 C   0  0  0  0  0  0  0  0  0  0  0  0
   -5.0580  -12.0450   28.1850 N   0  0  0  0  0  0  0  0  0  0  0  0
  -10.0960  -13.9030   20.9490 C   0  0  0  0  0  0  0  0  0  0  0  0
   -7.9050  -14.6300   22.8330 P   0  0  0  0  0  0  0  0  0  0  0  0
  -14.4990   -9.9730   24.1630 C   0  0  0  0  0  0  0  0  0  0  0  0
  -14.8560   -5.7970   28.4090 O   0  0  0  0  0  0  0  0  0  0  0  0
   -5.5130   -8.5810   28.7400 C   0  0  0  0  0  0  0  0  0  0  0  0
   -5.1770  -12.8130   24.3770 C   0  0  0  0  0  0  0  0  0  0  0  0
   -7.8050  -13.0700   23.3080 O   0  0  0  0  0  0  0  0  0  0  0  0
  -15.7650  -10.6560   22.3180 O   0  0  0  0  0  0  0  0  0  0  0  0
   -9.2670  -14.8350   23.4870 O   0  0  0  0  0  0  0  0  0  0  0  0
   -7.7220  -15.6090   21.7020 O   0  0  0  0  0  0  0  0  0  0  0  0
  -14.6810   -7.3670   28.2860 C   0  0  0  0  0  0  0  0  0  0  0  0
   -6.5750  -14.7940   23.7960 C   0  0  0  0  0  0  0  0  0  0  0  0
   -6.8230  -13.2080   24.1400 C   0  0  0  0  0  0  0  0  0  0  0  0
  -11.9760  -13.1600   20.7840 C   0  0  0  0  0  0  0  0  0  0  0  0
   -5.4460  -10.3850   29.8840 C   0  0  0  0  0  0  0  0  0  0  0  0
   -4.9030   -9.5300   27.5400 S   0  0  0  0  0  0  0  0  0  0  0  0
  -16.8420   -7.3270   26.8480 S   0  0  0  0  0  0  0  0  0  0  0  0
   -4.5550  -13.6870   24.4960 O   0  0  0  0  0  0  0  0  0  0  0  0
  1 15  2  0
  1 55  2  0
  2 37  1  0
  2  4  1  0
  4 26  1  0
  5 45  1  0
  6 51  1  0
  8 56  1  0
  8  7  1  0
  8 64  1  0
  9 60  1  0
  9 44  1  0
 11 22  1  0
 11 45  1  0
 12 39  2  3
 14 63  1  0
 14 58  1  0
 16 19  1  0
 16 27  1  0
 16 41  1  0
 18 35  1  0
 18  7  1  0
 19 42  1  0
 20 23  1  0
 22 17  1  0
 22  1  1  0
 24 66  1  0
 24 20  1  0
 25 54  1  0
 26 40  1  0
 26 13  2  0
 27 29  1  0
 28 48  1  0
 29  3  1  0
 30 53  1  0
 33 32  1  0
 35 21  2  0
 36 25  2  0
 36  3  1  0
 37 12  1  0
 39 56  1  0
 40 69  1  0
 41 49  1  0
 42  9  1  0
 42 44  1  0
 43 19  2  0
 46 13  1  0
 46 14  1  0
 46 35  1  0
 47 70  1  0
 48 31  1  0
 48 52  1  0
 48 10  1  0
 49 51  1  0
 50 20  2  0
 52 32  1  0
 52 72  1  0
 52 24  1  0
 53 38  1  0
 53  6  1  0
 54 27  1  0
 55 47  2  0
 57 65  2  0
 57 62  1  0
 57 64  1  0
 57 67  1  0
 58 33  1  0
 58 28  1  0
 59 38  1  0
 60 34  2  0
 61 73  1  0
 61 17  1  0
 62 68  1  0
 66 59  1  0
 66 30  1  0
 68 67  1  0
 68 61  1  0
 69 18  1  0
 70 34  1  0
 71 47  1  0
 71 60  1  0
 72 24  1  0
 73 11  1  0
M  END
$$$$

     RDKit          3D

 58 63  0  0  0  0  0  0  0  0999 V2000
   -4.2920   -3.7510   23.7080 C   0  0  0  0  0  0  0  0  0  0  0  0
  -12.9650  -12.7620   24.3550 C   0  0  0  0  0  0  0  0  0  0  0  0
   -0.8620  -10.1320   24.0820 C   0  0  0  0  0  0  0  0  0  0  0  0
  -16.8410  -10.4460   23.0230 O   0  0  0  0  0  0  0  0  0  0  0  0
   -4.8350   -4.9230   22.8390 C   0  0  0  0  0  0  0  0  0  0  0  0
   -6.3580   -2.9590   23.9210 C   0  0  0  0  0  0  0  0  0  0  0  0
  -14.1370  -13.4970   26.3040 C   0  0  0  0  0  0  0  0  0  0  0  0
    0.1380  -10.5150   23.3190 C   0  0  0  0  0  0  0  0  0  0  0  0
  -10.1990  -19.5130   27.1360 O   0  0  0  0  0  0  0  0  0  0  0  0
   -5.1060   -2.6200   23.5820 O   0  0  0  0  0  0  0  0  0  0  0  0
   -7.8030   -4.7400   27.9350 C   0  0  0  0  0  0  0  0  0  0  0  0
  -14.1490   -4.7280   29.3070 O   0  0  0  0  0  0  0  0  0  0  0  0
  -15.2430  -11.9640   24.4510 N   0  0  0  0  0  0  0  0  0  0  0  0
  -11.8810  -15.1050   26.1240 C   0  0  0  0  0  0  0  0  0  0  0  0
  -11.7050  -16.6610   27.7920 C   0  0  0  0  0  0  0  0  0  0  0  0
   -6.1320   -7.6120   24.9110 C   0  0  0  0  0  0  0  0  0  0  0  0
  -13.7820   -5.4500   27.8010 C   0  0  0  0  0  0  0  0  0  0  0  0
  -13.8230  -11.4640   24.1290 C   0  0  0  0  0  0  0  0  0  0  0  0
   -7.1200   -5.8710   27.3920 O   0  0  0  0  0  0  0  0  0  0  0  0
  -10.0520  -18.4390   26.2760 P   0  0  0  0  0  0  0  0  0  0  0  0
  -15.0220   -6.4370   27.9150 C   0  0  0  0  0  0  0  0  0  0  0  0
   -4.4440   -7.2120   24.6150 C   0  0  0  0  0  0  0  0  0  0  0  0
   -3.6110   -9.2590   26.3930 O   0  0  0  0  0  0  0  0  0  0  0  0
  -15.0620   -8.2540   25.4110 C   0  0  0  0  0  0  0  0  0  0  0  0
   -4.6180   -9.8570   23.8580 O   0  0  0  0  0  0  0  0  0  0  0  0
  -12.8760   -7.0560   27.0440 O   0  0  0  0  0  0  0  0  0  0  0  0
   -9.3800  -18.7480   24.9940 O   0  0  0  0  0  0  0  0  0  0  0  0
   -2.0090  -10.1550   24.6830 N   0  0  0  0  0  0  0  0  0  0  0  0
  -12.8520   -6.7270   28.3320 C   0  0  0  0  0  0  0  0  0  0  0  0
  -14.1030   -8.5600   25.3120 O   0  0  0  0  0  0  0  0  0  0  0  0
  -16.3060   -8.8330   24.9330 N   0  0  0  0  0  0  0  0  0  0  0  0
  -17.0030   -8.0020   27.4840 O   0  0  0  0  0  0  0  0  0  0  0  0
  -10.8940   -6.9290   29.4170 C   0  0  0  0  0  0  0  0  0  0  0  0
  -12.5790  -17.8400   27.2100 C   0  0  0  0  0  0  0  0  0  0  0  0
   -6.8620   -4.4730   25.7140 O   0  0  0  0  0  0  0  0  0  0  0  0
  -10.0030  -16.6730   26.2690 C   0  0  0  0  0  0  0  0  0  0  0  0
   -6.7510   -6.5780   25.0160 C   0  0  0  0  0  0  0  0  0  0  0  0
  -12.4550  -15.4980   27.6950 O   0  0  0  0  0  0  0  0  0  0  0  0
  -10.3360   -4.1780   28.0860 O   0  0  0  0  0  0  0  0  0  0  0  0
  -15.7660   -7.0710   26.6330 C   0  0  0  0  0  0  0  0  0  0  0  0
  -11.9690   -5.9750   29.4100 C   0  0  0  0  0  0  0  0  0  0  0  0
   -9.0580   -6.4570   29.4490 S   0  0  0  0  0  0  0  0  0  0  0  0
   -4.5910   -6.4040   23.3590 C   0  0  0  0  0  0  0  0  0  0  0  0
   -2.7320   -9.0380   25.1930 C   0  0  0  0  0  0  0  0  0  0  0  0
   -6.5790   -5.7860   24.0460 O   0  0  0  0  0  0  0  0  0  0  0  0
   -6.7380   -4.4790   24.2770 C   0  0  0  0  0  0  0  0  0  0  0  0
  -13.7370  -17.1330   26.4220 C   0  0  0  0  0  0  0  0  0  0  0  0
  -17.1930  -10.9440   25.7810 O   0  0  0  0  0  0  0  0  0  0  0  0
  -15.7140   -5.9410   28.8550 O   0  0  0  0  0  0  0  0  0  0  0  0
   -7.1610   -5.8300   26.0600 C   0  0  0  0  0  0  0  0  0  0  0  0
  -12.6310  -15.8180   25.7270 C   0  0  0  0  0  0  0  0  0  0  0  0
  -15.4030  -12.7910   25.8830 C   0  0  0  0  0  0  0  0  0  0  0  0
   -3.7370   -8.6840   24.0730 C   0  0  0  0  0  0  0  0  0  0  0  0
  -13.4570  -14.5610   25.4120 C   0  0  0  0  0  0  0  0  0  0  0  0
   -9.2900   -5.2320   28.2630 C   0  0  0  0  0  0  0  0  0  0  0  0
  -16.2450  -10.4900   24.5400 S   0  0  0  0  0  0  0  0  0  0  0  0
  -11.2160  -17.1240   26.7580 C   0  0  0  0  0  0  0  0  0  0  0  0
  -13.4800  -13.8750   23.9250 C   0  0  0  0  0  0  0  0  0  0  0  0
  3 28  1  0
  4 56  2  0
  5 43  1  0
  5  1  1  0
  8  3  1  0
 10  1  1  0
 10  6  1  0
 11 55  1  0
 13 56  1  0
 13 52  1  0
 14 38  1  0
 15 38  1  0
 17 21  1  0
 17 29  1  0
 17 12  1  0
 18  2  1  0
 18 13  1  0
 19 11  1  0
 20 27  2  0
 20 57  1  0
 20  9  1  0
 21 49  2  0
 22 53  1  0
 22 16  1  0
 24 40  1  0
 28 44  1  0
 29 26  1  0
 29 41  1  0
 30 24  2  0
 31 24  1  0
 33 42  1  0
 34 47  1  0
 34 15  1  0
 35 50  1  0
 36 20  1  0
 37 16  1  0
 37 50  1  0
 39 55  2  0
 40 32  1  0
 40 21  1  0
 41 33  1  0
 43 22  1  0
 44 23  1  0
 45 46  1  0
 45 37  1  0
 46  6  1  0
 46 35  1  0
 50 19  1  0
 51 14  1  0
 51 47  1  0
 52  7  1  0
 53 25  1  0
 53 44  1  0
 54 58  1  0
 54 51  1  0
 54  7  1  0
 55 42  1  0
 56 31  1  0
 56 48  2  0
 57 36  1  0
 57 34  1  0
 57 15  1  0
 58  2  1  0
M  END
$$$$

     RDKit          3D

  3  2  0  0  0  0  0  0  0  0999 V2000
   -9.6510  -10.4500   26.6400 O   0  0  0  0  0  0  0  0  0  0  0  0
   -9.6370  -10.0060   26.6740 Br  0  0  0  0  0  0  0  0  0  0  0  0
   -9.8390  -10.2560   26.9400 O   0  0  0  0  0  0  0  0  0  0  0  0
  1  3  1  0
  2  3  1  0
M  END
$$$$

     RDKit          3D

  7  6  0  0  0  0  0  0  0  0999 V2000
  -12.7560  -10.2250   23.3270 O   0  0  0  0  0  0  0  0  0  0  0  0
  -16.2880  -10.0360   23.3620 O   0  0  0  0  0  0  0  0  0  0  0  0
  -13.5860  -10.9100   22.0240 P   0  0  0  0  0  0  0  0  0  0  0  0
  -14.6670  -11.6380   23.1580 C   0  0  0  0  0  0  0  0  0  0  0  0
  -16.2610  -11.1720   23.1050 C   0  0  0  0  0  0  0  0  0  0  0  0
  -14.1070   -9.7230   21.5770 O   0  0  0  0  0  0  0  0  0  0  0  0
  -17.0160  -11.9950   22.8080 O   0  0  0  0  0  0  0  0  0  0  0  0
  3  4  1  0
  3  1  1  0
  5  4  1  0
  5  2  1  0
  6  3  1  0
  7  5  2  0
M  END
$$$$

     RDKit          3D

 48 55  0  0  0  0  0  0  0  0999 V2000
   -4.0310   -7.4410   27.7110 C   0  0  0  0  0  0  0  0  0  0  0  0
   -8.2720   -4.9340   28.3980 N   0  0  0  0  0  0  0  0  0  0  0  0
  -14.0780  -11.3110   23.1960 C   0  0  0  0  0  0  0  0  0  0  0  0
   -7.4010  -15.3060   24.4320 C   0  0  0  0  0  0  0  0  0  0  0  0
  -13.6580  -13.3420   24.4690 C   0  0  0  0  0  0  0  0  0  0  0  0
  -10.0530  -15.0930   25.5530 C   0  0  0  0  0  0  0  0  0  0  0  0
   -9.0060  -14.1560   23.7450 O   0  0  0  0  0  0  0  0  0  0  0  0
   -2.9860   -9.1950   28.9530 C   0  0  0  0  0  0  0  0  0  0  0  0
   -7.6740   -6.4840   26.6380 O   0  0  0  0  0  0  0  0  0  0  0  0
   -4.3820  -10.0640   27.9960 C   0  0  0  0  0  0  0  0  0  0  0  0
  -15.4310   -6.4560   27.0290 C   0  0  0  0  0  0  0  0  0  0  0  0
  -15.1290   -9.2610   24.4930 C   0  0  0  0  0  0  0  0  0  0  0  0
   -7.1050   -6.7760   29.3140 C   0  0  0  0  0  0  0  0  0  0  0  0
  -14.5620  -11.4620   25.5050 O   0  0  0  0  0  0  0  0  0  0  0  0
   -3.8610   -6.3280   27.2540 O   0  0  0  0  0  0  0  0  0  0  0  0
   -7.8190   -6.2800   27.9270 C   0  0  0  0  0  0  0  0  0  0  0  0
   -3.5560  -10.6220   29.1900 C   0  0  0  0  0  0  0  0  0  0  0  0
  -14.7520   -8.1790   25.4520 O   0  0  0  0  0  0  0  0  0  0  0  0
   -5.7520   -6.3210   29.3620 C   0  0  0  0  0  0  0  0  0  0  0  0
  -10.6680   -4.3430   28.1740 O   0  0  0  0  0  0  0  0  0  0  0  0
  -12.3620  -14.4360   26.2220 C   0  0  0  0  0  0  0  0  0  0  0  0
  -11.8560   -4.9430   28.7770 C   0  0  0  0  0  0  0  0  0  0  0  0
  -15.2750  -12.2670   23.3250 C   0  0  0  0  0  0  0  0  0  0  0  0
  -13.0280   -6.8500   27.7780 C   0  0  0  0  0  0  0  0  0  0  0  0
   -8.8970   -2.8440   27.5330 C   0  0  0  0  0  0  0  0  0  0  0  0
  -12.6330  -14.1130   24.9200 C   0  0  0  0  0  0  0  0  0  0  0  0
  -16.4460  -12.7440   20.9710 C   0  0  0  0  0  0  0  0  0  0  0  0
  -10.2580  -14.4420   24.4160 C   0  0  0  0  0  0  0  0  0  0  0  0
   -4.8960   -7.5060   28.5740 N   0  0  0  0  0  0  0  0  0  0  0  0
  -11.2260  -15.4400   26.1130 C   0  0  0  0  0  0  0  0  0  0  0  0
  -14.8100  -12.7880   24.9450 C   0  0  0  0  0  0  0  0  0  0  0  0
  -15.8380   -8.7610   27.1540 O   0  0  0  0  0  0  0  0  0  0  0  0
  -11.3680  -14.0100   23.9750 C   0  0  0  0  0  0  0  0  0  0  0  0
   -5.0880   -5.1610   29.4200 C   0  0  0  0  0  0  0  0  0  0  0  0
   -7.7460  -13.8320   24.1260 C   0  0  0  0  0  0  0  0  0  0  0  0
  -15.5210  -13.0560   22.0330 O   0  0  0  0  0  0  0  0  0  0  0  0
  -12.0550   -5.7020   27.6630 O   0  0  0  0  0  0  0  0  0  0  0  0
   -9.3330   -4.1640   28.3360 C   0  0  0  0  0  0  0  0  0  0  0  0
   -8.4820  -16.0230   25.9410 S   0  0  0  0  0  0  0  0  0  0  0  0
  -13.2420   -4.1670   29.0390 C   0  0  0  0  0  0  0  0  0  0  0  0
  -14.3400   -6.0490   28.0590 C   0  0  0  0  0  0  0  0  0  0  0  0
   -3.3150   -8.7360   27.5710 C   0  0  0  0  0  0  0  0  0  0  0  0
   -5.2080   -9.0680   29.2640 C   0  0  0  0  0  0  0  0  0  0  0  0
  -14.0870  -10.3330   24.5570 C   0  0  0  0  0  0  0  0  0  0  0  0
  -15.2570   -7.9440   26.5820 C   0  0  0  0  0  0  0  0  0  0  0  0
  -12.8890  -12.5550   23.4370 O   0  0  0  0  0  0  0  0  0  0  0  0
  -12.8330   -4.6140   26.8170 O   0  0  0  0  0  0  0  0  0  0  0  0
  -13.9530   -4.5280   27.6390 C   0  0  0  0  0  0  0  0  0  0  0  0
  1 29  1  0
  3 23  1  0
  3 46  1  0
  3 44  1  0
  4 39  1  0
  5 46  1  0
  5 26  1  0
  5 31  1  0
  6 39  1  0
  6 30  1  0
  7 35  1  0
  7 28  1  0
  8 17  1  0
  9 16  2  0
 10  8  1  0
 10 17  1  0
 10 43  1  0
 12 18  1  0
 13 19  1  0
 15  1  2  0
 16  2  1  0
 16 13  1  0
 18 45  1  0
 19 34  2  0
 20 38  1  0
 22 20  1  0
 22 40  1  0
 23 36  1  0
 23 31  1  0
 24 41  1  0
 26 33  1  0
 26 21  1  0
 27 36  1  0
 28  6  1  0
 29 43  1  0
 29 19  1  0
 30 21  1  0
 31 14  1  0
 33 28  2  0
 35  4  1  0
 37 24  1  0
 37 22  1  0
 38 25  1  0
 38  2  1  0
 41 11  1  0
 42  1  1  0
 42 10  1  0
 42  8  1  0
 44 12  1  0
 44 14  1  0
 45 11  1  0
 45 32  2  0
 48 47  1  0
 48 41  1  0
 48 40  1  0
M  END
$$$$

     RDKit          3D

 23 24  0  0  0  0  0  0  0  0999 V2000
   -6.1140   -6.7440   27.8620 C   0  0  0  0  0  0  0  0  0  0  0  0
    0.2540   -9.6470   25.7340 C   0  0  0  0  0  0  0  0  0  0  0  0
   -5.6770   -8.6910   28.8990 O   0  0  0  0  0  0  0  0  0  0  0  0
   -6.6730   -6.3300   26.6310 C   0  0  0  0  0  0  0  0  0  0  0  0
    0.4440  -11.3600   27.5350 C   0  0  0  0  0  0  0  0  0  0  0  0
   -1.2810   -7.9960   27.0990 C   0  0  0  0  0  0  0  0  0  0  0  0
   -2.4390   -8.3050   26.3480 N   0  0  0  0  0  0  0  0  0  0  0  0
   -3.5320   -9.0690   26.8060 C   0  0  0  0  0  0  0  0  0  0  0  0
   -0.3580  -10.2880   26.9280 N   0  0  0  0  0  0  0  0  0  0  0  0
   -4.5950   -8.0460   27.0610 C   0  0  0  0  0  0  0  0  0  0  0  0
   -4.8100   -7.3350   28.5180 C   0  0  0  0  0  0  0  0  0  0  0  0
   -7.3170   -6.7640   28.8590 C   0  0  0  0  0  0  0  0  0  0  0  0
   -4.2270   -6.7610   26.4100 O   0  0  0  0  0  0  0  0  0  0  0  0
   -3.1200   -4.4320   26.8030 C   0  0  0  0  0  0  0  0  0  0  0  0
   -8.3480   -5.8230   28.2340 C   0  0  0  0  0  0  0  0  0  0  0  0
    1.5060  -10.8650   28.1830 C   0  0  0  0  0  0  0  0  0  0  0  0
    2.6890  -11.4670   30.4300 N   0  0  0  0  0  0  0  0  0  0  0  0
   -3.9480   -5.4880   27.2890 C   0  0  0  0  0  0  0  0  0  0  0  0
   -7.9550   -5.6190   26.8420 N   0  0  0  0  0  0  0  0  0  0  0  0
   -0.9560   -9.3030   27.8040 C   0  0  0  0  0  0  0  0  0  0  0  0
    2.5540  -11.6830   28.9050 C   0  0  0  0  0  0  0  0  0  0  0  0
   -3.8970   -5.9320   28.6470 C   0  0  0  0  0  0  0  0  0  0  0  0
    1.2290   -9.7950   29.0900 O   0  0  0  0  0  0  0  0  0  0  0  0
  1  4  1  0
  1 11  1  0
  1 12  1  0
  2  9  1  0
  4 19  1  0
  5 16  1  0
  6 20  1  0
  7  8  1  0
  7  6  1  0
  9  5  1  0
  9 20  1  0
 10  8  1  0
 10 11  1  0
 11 22  1  0
 11  3  1  0
 13 10  1  0
 13 18  1  0
 15 12  1  0
 16 21  1  0
 16 23  1  0
 18 14  1  0
 18 22  1  0
 19 15  1  0
 21 17  1  0
M  END
$$$$
