
     RDKit          3D

 10 10  0  0  0  0  0  0  0  0999 V2000
    7.2440   38.8140   29.1100 C   0  0  0  0  0  0  0  0  0  0  0  0
    7.3980   39.7390   28.3040 O   0  0  0  0  0  0  0  0  0  0  0  0
   10.5260   36.8160   28.7210 C   0  0  0  0  0  0  0  0  0  0  0  0
    7.7180   36.3850   28.7500 C   0  0  0  0  0  0  0  0  0  0  0  0
    6.3610   38.8780   29.9870 O   0  0  0  0  0  0  0  0  0  0  0  0
    8.6010   35.3100   28.4450 C   0  0  0  0  0  0  0  0  0  0  0  0
    9.6730   37.7770   29.1430 C   0  0  0  0  0  0  0  0  0  0  0  0
    8.2740   37.6050   29.0530 C   0  0  0  0  0  0  0  0  0  0  0  0
   10.0010   35.5530   28.3920 C   0  0  0  0  0  0  0  0  0  0  0  0
   10.3030   39.0400   29.8040 C   0  0  0  0  0  0  0  0  0  0  0  0
  1  5  1  0
  2  1  2  0
  3  7  1  0
  4  8  1  0
  6  4  2  0
  7 10  1  0
  8  1  1  0
  8  7  2  0
  9  6  1  0
  9  3  2  0
M  END
$$$$

     RDKit          3D

 48 53  0  0  0  0  0  0  0  0999 V2000
    9.5760   41.5580   25.9080 C   0  0  0  0  0  0  0  0  0  0  0  0
    8.2330   36.0080   29.4060 C   0  0  0  0  0  0  0  0  0  0  0  0
   12.3630   47.2220   31.0610 C   0  0  0  0  0  0  0  0  0  0  0  0
    9.9450   39.3690   34.6260 C   0  0  0  0  0  0  0  0  0  0  0  0
    7.2460   35.1260   28.9460 C   0  0  0  0  0  0  0  0  0  0  0  0
    7.0260   39.3260   32.7380 C   0  0  0  0  0  0  0  0  0  0  0  0
    8.9550   40.2870   25.7070 C   0  0  0  0  0  0  0  0  0  0  0  0
   13.9240   46.9120   31.4550 C   0  0  0  0  0  0  0  0  0  0  0  0
    6.7310   32.4930   26.1180 C   0  0  0  0  0  0  0  0  0  0  0  0
    8.1200   39.9540   36.2200 C   0  0  0  0  0  0  0  0  0  0  0  0
    9.6970   41.2610   28.2730 C   0  0  0  0  0  0  0  0  0  0  0  0
   10.2550   29.2690   27.7140 O   0  0  0  0  0  0  0  0  0  0  0  0
   11.9060   43.7250   30.6180 C   0  0  0  0  0  0  0  0  0  0  0  0
   12.9190   44.6900   31.0880 N   0  0  0  0  0  0  0  0  0  0  0  0
    9.6130   42.1960   30.6010 C   0  0  0  0  0  0  0  0  0  0  0  0
    8.6710   37.9930   29.2620 C   0  0  0  0  0  0  0  0  0  0  0  0
    5.8440   35.4160   30.3420 C   0  0  0  0  0  0  0  0  0  0  0  0
    7.5760   30.1880   27.3360 C   0  0  0  0  0  0  0  0  0  0  0  0
    7.3060   31.3740   26.3820 C   0  0  0  0  0  0  0  0  0  0  0  0
    9.2700   35.9600   28.5440 C   0  0  0  0  0  0  0  0  0  0  0  0
    8.7750   38.3950   33.7940 C   0  0  0  0  0  0  0  0  0  0  0  0
    9.3450   40.0630   35.8170 N   0  0  0  0  0  0  0  0  0  0  0  0
    6.6670   33.8800   28.5340 C   0  0  0  0  0  0  0  0  0  0  0  0
    7.3730   40.7330   36.9420 O   0  0  0  0  0  0  0  0  0  0  0  0
    9.8890   42.0650   27.0790 C   0  0  0  0  0  0  0  0  0  0  0  0
    8.6700   39.5100   26.9500 C   0  0  0  0  0  0  0  0  0  0  0  0
    7.5200   37.6190   29.3220 C   0  0  0  0  0  0  0  0  0  0  0  0
    6.8120   31.2320   25.7450 C   0  0  0  0  0  0  0  0  0  0  0  0
   10.2240   41.0270   36.4760 C   0  0  0  0  0  0  0  0  0  0  0  0
    9.0230   39.4370   31.0540 C   0  0  0  0  0  0  0  0  0  0  0  0
    7.5550   38.5030   34.0500 C   0  0  0  0  0  0  0  0  0  0  0  0
   12.5290   42.7920   29.6050 C   0  0  0  0  0  0  0  0  0  0  0  0
   12.9170   45.8890   31.1630 C   0  0  0  0  0  0  0  0  0  0  0  0
    9.0790   40.0390   28.1260 C   0  0  0  0  0  0  0  0  0  0  0  0
    8.2280   39.7260   32.0380 N   0  0  0  0  0  0  0  0  0  0  0  0
   10.7000   44.2950   30.8510 C   0  0  0  0  0  0  0  0  0  0  0  0
   10.2580   41.6670   29.4370 O   0  0  0  0  0  0  0  0  0  0  0  0
   12.5360   43.3970   28.3360 O   0  0  0  0  0  0  0  0  0  0  0  0
    7.9680   29.8170   28.7180 C   0  0  0  0  0  0  0  0  0  0  0  0
   10.2010   39.1900   31.3720 O   0  0  0  0  0  0  0  0  0  0  0  0
    6.1740   35.3220   29.8850 C   0  0  0  0  0  0  0  0  0  0  0  0
    9.3920   43.6090   30.5410 C   0  0  0  0  0  0  0  0  0  0  0  0
    9.9470   37.4190   28.8070 C   0  0  0  0  0  0  0  0  0  0  0  0
    7.6620   33.0920   28.1810 C   0  0  0  0  0  0  0  0  0  0  0  0
    7.7790   31.7880   27.4270 C   0  0  0  0  0  0  0  0  0  0  0  0
    7.1180   39.2370   35.1300 C   0  0  0  0  0  0  0  0  0  0  0  0
    9.0650   29.7490   27.6230 C   0  0  0  0  0  0  0  0  0  0  0  0
    8.5110   39.4900   29.4770 C   0  0  0  0  0  0  0  0  0  0  0  0
  1 25  1  0
  2  5  1  0
  3 33  1  0
  3  8  1  0
  4 22  1  0
  5 23  1  0
  5 41  1  0
  7  1  2  0
  7 26  1  0
  9 19  1  0
 10 24  2  0
 11 37  1  0
 13 32  1  0
 13 36  1  0
 13 14  1  0
 14 33  2  3
 16 27  1  0
 16 48  1  0
 18 45  1  0
 18 47  1  0
 18 39  1  0
 19 18  1  0
 19 45  1  0
 20 43  1  0
 20  2  1  0
 21 31  1  0
 21  4  2  0
 22 10  1  0
 22 29  1  0
 25 11  2  0
 26 34  2  0
 27  2  1  0
 28 19  1  0
 30 40  2  0
 30 35  1  0
 31  6  1  0
 31 46  1  0
 33  8  1  0
 34 11  1  0
 34 48  1  0
 35  6  1  0
 37 15  1  0
 38 32  1  0
 41 17  3  0
 42 15  1  0
 42 36  1  0
 43 16  1  0
 44 23  1  0
 45 44  1  0
 46 10  1  0
 47 12  1  0
 47 39  1  0
 48 30  1  0
M  END
$$$$

     RDKit          3D

  9  9  0  0  0  0  0  0  0  0999 V2000
    9.5970   39.4120   29.6730 C   0  0  0  0  0  0  0  0  0  0  0  0
    7.9840   36.9230   28.7300 C   0  0  0  0  0  0  0  0  0  0  0  0
   10.7120   38.5200   29.8890 C   0  0  0  0  0  0  0  0  0  0  0  0
    9.3960   36.4260   29.0920 C   0  0  0  0  0  0  0  0  0  0  0  0
    7.6110   39.9690   31.0870 N   0  0  0  0  0  0  0  0  0  0  0  0
    7.2800   37.9910   29.5760 C   0  0  0  0  0  0  0  0  0  0  0  0
    8.2850   38.8970   30.3400 C   0  0  0  0  0  0  0  0  0  0  0  0
    9.8470   40.2600   28.6360 N   0  0  0  0  0  0  0  0  0  0  0  0
   10.5240   37.4310   28.7430 C   0  0  0  0  0  0  0  0  0  0  0  0
  1  8  1  0
  1  3  1  0
  1  7  1  0
  2  4  1  0
  2  6  1  0
  6  7  1  0
  7  5  1  0
  9  4  1  0
  9  3  1  0
M  END
$$$$

     RDKit          3D

 11 12  0  0  0  0  0  0  0  0999 V2000
    9.8010   38.3610   31.3170 N   0  0  0  0  0  0  0  0  0  0  0  0
    9.5660   39.5550   29.2470 C   0  0  0  0  0  0  0  0  0  0  0  0
    9.0800   36.0520   29.7780 C   0  0  0  0  0  0  0  0  0  0  0  0
    9.3850   38.3530   30.0920 C   0  0  0  0  0  0  0  0  0  0  0  0
    7.8070   37.1580   28.4940 N   0  0  0  0  0  0  0  0  0  0  0  0
    7.5200   35.8980   28.8070 C   0  0  0  0  0  0  0  0  0  0  0  0
   10.6570   40.2890   29.4920 C   0  0  0  0  0  0  0  0  0  0  0  0
   10.6470   39.3830   31.6170 C   0  0  0  0  0  0  0  0  0  0  0  0
    8.5600   39.6320   28.2840 N   0  0  0  0  0  0  0  0  0  0  0  0
    9.0110   37.2030   29.2600 C   0  0  0  0  0  0  0  0  0  0  0  0
   11.1380   40.2560   30.7520 N   0  0  0  0  0  0  0  0  0  0  0  0
  1  8  1  0
  2  9  1  0
  2  7  1  0
  2  4  1  0
  4  1  2  0
  5  6  1  0
  5 10  1  0
  6  3  1  0
  7 11  1  0
 10  3  1  0
 10  4  1  0
 11  8  2  0
M  END
$$$$

     RDKit          3D

 15 17  0  0  0  0  0  0  0  0999 V2000
    8.6760   36.5080   28.5420 C   0  0  0  0  0  0  0  0  0  0  0  0
    7.6420   38.1250   30.6150 C   0  0  0  0  0  0  0  0  0  0  0  0
   11.2990   41.3110   29.6520 N   0  0  0  0  0  0  0  0  0  0  0  0
    9.6350   39.5610   30.2890 C   0  0  0  0  0  0  0  0  0  0  0  0
   10.3600   39.8130   28.0440 N   0  0  0  0  0  0  0  0  0  0  0  0
    9.0950   37.8240   28.6480 C   0  0  0  0  0  0  0  0  0  0  0  0
    7.6530   36.0230   29.3870 C   0  0  0  0  0  0  0  0  0  0  0  0
    7.1180   36.8340   30.3970 C   0  0  0  0  0  0  0  0  0  0  0  0
   10.3890   40.2390   29.2790 C   0  0  0  0  0  0  0  0  0  0  0  0
    9.5530   40.0660   31.6900 C   0  0  0  0  0  0  0  0  0  0  0  0
    9.8830   38.2950   26.5610 O   0  0  0  0  0  0  0  0  0  0  0  0
   11.8030   41.2180   31.0300 C   0  0  0  0  0  0  0  0  0  0  0  0
    9.7760   38.5530   27.7060 C   0  0  0  0  0  0  0  0  0  0  0  0
   10.7910   40.8290   32.0780 C   0  0  0  0  0  0  0  0  0  0  0  0
    8.7770   38.5050   29.8990 C   0  0  0  0  0  0  0  0  0  0  0  0
  1  6  2  0
  1  7  1  0
  3 12  1  0
  4 10  1  0
  5  9  2  0
  6 15  1  0
  7  8  2  0
  8  2  1  0
  9  3  2  0
  9  4  1  0
 10 14  1  0
 11 13  2  0
 12 14  1  0
 13  5  2  0
 13  6  1  0
 15  4  1  0
 15  2  2  0
M  END
$$$$

     RDKit          3D

  6  5  0  0  0  0  0  0  0  0999 V2000
   10.4820   39.0300   31.2690 C   0  0  0  0  0  0  0  0  0  0  0  0
    8.9040   38.2520   29.1820 C   0  0  0  0  0  0  0  0  0  0  0  0
   11.1920   38.9430   29.3700 O   0  0  0  0  0  0  0  0  0  0  0  0
    9.4810   35.9050   27.8980 S   0  0  0  0  0  0  0  0  0  0  0  0
   10.1750   38.4930   29.8800 C   0  0  0  0  0  0  0  0  0  0  0  0
    8.5970   36.8040   29.1750 C   0  0  0  0  0  0  0  0  0  0  0  0
  2  5  1  0
  3  5  2  0
  4  6  1  0
  5  1  1  0
  6  2  1  0
M  END
$$$$

     RDKit          3D

  7  6  0  0  0  0  0  0  0  0999 V2000
   10.6200   39.6060   28.6890 O   0  0  0  0  0  0  0  0  0  0  0  0
   10.1500   38.5310   29.5420 P   0  0  0  0  0  0  0  0  0  0  0  0
    7.9240   39.7150   27.9480 O   0  0  0  0  0  0  0  0  0  0  0  0
    7.7120   39.9550   29.5740 C   0  0  0  0  0  0  0  0  0  0  0  0
    8.5750   39.0340   30.2240 C   0  0  0  0  0  0  0  0  0  0  0  0
   10.8740   38.6620   30.9580 O   0  0  0  0  0  0  0  0  0  0  0  0
   10.0020   37.1630   29.0870 O   0  0  0  0  0  0  0  0  0  0  0  0
  1  2  2  0
  2  5  1  0
  2  6  1  0
  3  4  1  0
  4  5  1  0
  7  2  1  0
M  END
$$$$

     RDKit          3D

 10 11  0  0  0  0  0  0  0  0999 V2000
    7.4580   36.9330   29.5150 C   0  0  0  0  0  0  0  0  0  0  0  0
    8.6550   35.9920   29.2730 C   0  0  0  0  0  0  0  0  0  0  0  0
    7.5400   40.3490   27.7450 C   0  0  0  0  0  0  0  0  0  0  0  0
   10.4900   38.3040   29.4180 C   0  0  0  0  0  0  0  0  0  0  0  0
    7.9580   38.2160   28.9970 C   0  0  0  0  0  0  0  0  0  0  0  0
    9.3360   38.0300   28.4030 C   0  0  0  0  0  0  0  0  0  0  0  0
    9.0920   40.3940   27.6530 C   0  0  0  0  0  0  0  0  0  0  0  0
    9.6290   39.0720   27.2810 C   0  0  0  0  0  0  0  0  0  0  0  0
    9.5970   36.5980   28.2660 C   0  0  0  0  0  0  0  0  0  0  0  0
    7.2060   39.5070   28.9000 C   0  0  0  0  0  0  0  0  0  0  0  0
  2  1  1  0
  3 10  1  0
  5 10  1  0
  5  1  1  0
  6  5  1  0
  6  4  1  0
  7  3  1  0
  8  7  1  0
  8  6  1  0
  9  6  1  0
  9  2  1  0
M  END
$$$$

     RDKit          3D

 12 13  0  0  0  0  0  0  0  0999 V2000
   11.4170   41.1120   29.8420 O   0  0  0  0  0  0  0  0  0  0  0  0
   10.2470   38.8670   28.1920 C   0  0  0  0  0  0  0  0  0  0  0  0
    9.3080   41.6310   29.5010 O   0  0  0  0  0  0  0  0  0  0  0  0
    9.2700   41.3490   30.6760 N   0  0  0  0  0  0  0  0  0  0  0  0
    7.6880   35.1690   28.2500 C   0  0  0  0  0  0  0  0  0  0  0  0
    9.7290   37.5100   28.0940 C   0  0  0  0  0  0  0  0  0  0  0  0
    8.1630   35.9200   29.4680 C   0  0  0  0  0  0  0  0  0  0  0  0
    8.7450   38.3430   29.8270 O   0  0  0  0  0  0  0  0  0  0  0  0
   10.6810   39.8370   31.7300 C   0  0  0  0  0  0  0  0  0  0  0  0
   10.1490   40.4610   30.2490 S   0  0  0  0  0  0  0  0  0  0  0  0
    8.8440   37.2380   29.1080 C   0  0  0  0  0  0  0  0  0  0  0  0
    9.7050   39.3220   29.3920 C   0  0  0  0  0  0  0  0  0  0  0  0
  1 10  1  0
  2 12  2  0
  3 10  1  0
  3  4  1  0
  5  7  1  0
  6  2  1  0
  6 11  2  0
 10  4  1  0
 10  9  1  0
 11  7  1  0
 11  8  1  0
 12  8  1  0
 12 10  1  0
M  END
$$$$

     RDKit          3D

 33 36  0  0  0  0  0  0  0  0999 V2000
    7.6610   40.1810   28.5920 C   0  0  0  0  0  0  0  0  0  0  0  0
    8.0530   30.7920   29.0410 C   0  0  0  0  0  0  0  0  0  0  0  0
    9.7490   38.4190   27.6740 C   0  0  0  0  0  0  0  0  0  0  0  0
    7.9280   41.4620   32.0510 C   0  0  0  0  0  0  0  0  0  0  0  0
    6.9270   37.9070   30.0930 O   0  0  0  0  0  0  0  0  0  0  0  0
    6.3180   40.5360   28.9400 C   0  0  0  0  0  0  0  0  0  0  0  0
    8.4860   40.2520   32.4880 N   0  0  0  0  0  0  0  0  0  0  0  0
   10.3050   37.1320   27.7980 C   0  0  0  0  0  0  0  0  0  0  0  0
    7.7970   37.5940   29.0880 C   0  0  0  0  0  0  0  0  0  0  0  0
    8.2750   33.6400   26.7590 O   0  0  0  0  0  0  0  0  0  0  0  0
    7.8360   40.7580   29.7070 O   0  0  0  0  0  0  0  0  0  0  0  0
   10.3030   38.2570   35.0780 N   0  0  0  0  0  0  0  0  0  0  0  0
    8.3880   29.4720   29.3150 C   0  0  0  0  0  0  0  0  0  0  0  0
    7.1290   35.0340   29.0940 C   0  0  0  0  0  0  0  0  0  0  0  0
    9.7430   28.9100   29.3690 C   0  0  0  0  0  0  0  0  0  0  0  0
   11.1380   27.3390   26.6270 N   0  0  0  0  0  0  0  0  0  0  0  0
    9.9560   29.5950   27.1860 C   0  0  0  0  0  0  0  0  0  0  0  0
    7.9580   32.9150   27.7420 C   0  0  0  0  0  0  0  0  0  0  0  0
    8.3420   42.6100   32.3850 O   0  0  0  0  0  0  0  0  0  0  0  0
    9.6170   38.5510   33.8910 C   0  0  0  0  0  0  0  0  0  0  0  0
    9.5250   35.9220   28.3360 C   0  0  0  0  0  0  0  0  0  0  0  0
    9.1720   37.6780   33.2170 N   0  0  0  0  0  0  0  0  0  0  0  0
    8.3870   38.7460   28.3430 C   0  0  0  0  0  0  0  0  0  0  0  0
    8.2000   36.2010   28.8400 C   0  0  0  0  0  0  0  0  0  0  0  0
    8.4210   31.5740   27.8560 C   0  0  0  0  0  0  0  0  0  0  0  0
    7.2980   41.1840   30.9860 N   0  0  0  0  0  0  0  0  0  0  0  0
    6.0380   40.8900   30.3490 C   0  0  0  0  0  0  0  0  0  0  0  0
    7.1750   33.5070   28.8880 C   0  0  0  0  0  0  0  0  0  0  0  0
    5.6770   35.4080   29.6110 C   0  0  0  0  0  0  0  0  0  0  0  0
    9.4210   28.4930   28.0090 C   0  0  0  0  0  0  0  0  0  0  0  0
    9.3500   40.0230   33.6500 C   0  0  0  0  0  0  0  0  0  0  0  0
    9.3360   30.8590   26.9180 C   0  0  0  0  0  0  0  0  0  0  0  0
   10.3690   27.2590   27.9280 C   0  0  0  0  0  0  0  0  0  0  0  0
  1 23  1  0
  1  6  1  0
  1 11  1  0
  3  8  2  0
  3 23  1  0
  4 19  2  0
  4  7  1  0
  6 27  1  0
  7 31  1  0
  8 21  1  0
  9  5  1  0
 10 18  2  0
 11 26  1  0
 13  2  1  0
 13 15  1  0
 14 29  1  0
 16 33  1  0
 17 30  1  0
 18 25  1  0
 18 28  1  0
 20 12  1  0
 21 24  2  0
 22 20  2  0
 23  9  2  0
 24  9  1  0
 24 14  1  0
 25  2  2  0
 26  4  1  0
 27 26  1  0
 28 14  1  0
 30 33  1  0
 30 13  1  0
 30 15  1  0
 31 20  1  0
 32 17  1  0
 32 25  1  0
M  END
$$$$

     RDKit          3D

 15 18  0  0  0  0  0  0  0  0999 V2000
    7.6560   40.0930   31.0540 C   0  0  0  0  0  0  0  0  0  0  0  0
    8.4140   36.2710   30.2570 N   0  0  0  0  0  0  0  0  0  0  0  0
    8.7770   39.4690   28.9550 C   0  0  0  0  0  0  0  0  0  0  0  0
   10.2120   38.5920   26.6540 O   0  0  0  0  0  0  0  0  0  0  0  0
   10.1110   38.4190   28.0420 C   0  0  0  0  0  0  0  0  0  0  0  0
    8.4660   40.3410   27.9370 C   0  0  0  0  0  0  0  0  0  0  0  0
    8.0240   38.3700   29.1460 C   0  0  0  0  0  0  0  0  0  0  0  0
    6.7280   40.5300   29.5070 C   0  0  0  0  0  0  0  0  0  0  0  0
    7.0050   40.4960   28.2280 C   0  0  0  0  0  0  0  0  0  0  0  0
    6.8090   39.6500   30.4160 C   0  0  0  0  0  0  0  0  0  0  0  0
    6.7860   38.9580   29.2090 C   0  0  0  0  0  0  0  0  0  0  0  0
    8.4090   36.9510   28.9610 C   0  0  0  0  0  0  0  0  0  0  0  0
    7.1170   39.3440   31.1220 C   0  0  0  0  0  0  0  0  0  0  0  0
   10.5830   39.3610   28.9970 C   0  0  0  0  0  0  0  0  0  0  0  0
    9.8140   36.8280   28.3460 C   0  0  0  0  0  0  0  0  0  0  0  0
  1 13  1  0
  3  6  1  0
  3 14  1  0
  3  7  1  0
  5  4  1  0
  5 15  1  0
  5 14  1  0
  6  9  1  0
  7 11  1  0
  8 10  1  0
  9  8  1  0
 10  1  1  0
 10 13  1  0
 11  8  1  0
 11 10  1  0
 12  7  1  0
 12  2  1  0
 15 12  1  0
M  END
$$$$

     RDKit          3D

 13 13  0  0  0  0  0  0  0  0999 V2000
    6.7570   36.7620   29.6850 N   0  0  0  0  0  0  0  0  0  0  0  0
    8.0390   36.9470   29.1370 C   0  0  0  0  0  0  0  0  0  0  0  0
    8.4360   35.4140   28.7760 S   0  0  0  0  0  0  0  0  0  0  0  0
    8.7380   38.1420   28.7430 C   0  0  0  0  0  0  0  0  0  0  0  0
    7.0480   34.5460   29.2490 C   0  0  0  0  0  0  0  0  0  0  0  0
   10.7060   38.5820   32.3600 O   0  0  0  0  0  0  0  0  0  0  0  0
   10.2760   38.2530   28.8730 C   0  0  0  0  0  0  0  0  0  0  0  0
    7.9630   39.1640   28.4380 O   0  0  0  0  0  0  0  0  0  0  0  0
   10.7540   40.8610   28.3510 O   0  0  0  0  0  0  0  0  0  0  0  0
   10.1010   39.6880   31.7670 C   0  0  0  0  0  0  0  0  0  0  0  0
   10.9440   40.1480   30.5850 C   0  0  0  0  0  0  0  0  0  0  0  0
    6.2480   35.5460   29.7920 C   0  0  0  0  0  0  0  0  0  0  0  0
   10.5810   39.6960   29.2570 C   0  0  0  0  0  0  0  0  0  0  0  0
  1 12  1  0
  2  1  2  0
  3  2  1  0
  3  5  1  0
  4  8  1  0
  4  7  1  0
  4  2  1  0
  5 12  2  0
  7 13  1  0
 10  6  1  0
 11 10  1  0
 13  9  1  0
 13 11  1  0
M  END
$$$$

     RDKit          3D

 12 13  0  0  0  0  0  0  0  0999 V2000
    9.0930   40.9230   30.0090 C   0  0  0  0  0  0  0  0  0  0  0  0
    9.2990   36.2950   28.2830 C   0  0  0  0  0  0  0  0  0  0  0  0
    8.9560   37.6400   28.5780 C   0  0  0  0  0  0  0  0  0  0  0  0
   11.1920   39.7390   30.7940 C   0  0  0  0  0  0  0  0  0  0  0  0
    7.7350   38.0320   28.3210 O   0  0  0  0  0  0  0  0  0  0  0  0
   10.5590   41.1030   30.4490 C   0  0  0  0  0  0  0  0  0  0  0  0
    9.0370   40.0230   28.8970 C   0  0  0  0  0  0  0  0  0  0  0  0
   10.9040   38.7000   29.7720 O   0  0  0  0  0  0  0  0  0  0  0  0
    9.7030   38.6490   29.1540 C   0  0  0  0  0  0  0  0  0  0  0  0
    7.7810   39.5520   28.2720 N   0  0  0  0  0  0  0  0  0  0  0  0
   10.5010   35.9240   28.3580 F   0  0  0  0  0  0  0  0  0  0  0  0
    8.4850   35.5790   27.6200 F   0  0  0  0  0  0  0  0  0  0  0  0
  1  6  1  0
  2 11  1  0
  2  3  2  3
  5  3  1  0
  6  4  1  0
  7  9  1  0
  7  1  1  0
  8  4  1  0
  9  3  1  0
  9  8  1  0
 10  5  1  0
 10  7  1  0
 12  2  1  0
M  END
$$$$

     RDKit          3D

 12 13  0  0  0  0  0  0  0  0999 V2000
   10.4470   36.5660   28.4430 C   0  0  0  0  0  0  0  0  0  0  0  0
    8.3260   38.0970   29.4080 C   0  0  0  0  0  0  0  0  0  0  0  0
    9.9330   41.1820   30.6220 O   0  0  0  0  0  0  0  0  0  0  0  0
    7.7650   34.7950   28.6820 C   0  0  0  0  0  0  0  0  0  0  0  0
   10.8700   40.5890   29.7910 C   0  0  0  0  0  0  0  0  0  0  0  0
    7.9960   36.1780   29.5870 C   0  0  0  0  0  0  0  0  0  0  0  0
    6.7160   37.6110   29.5880 S   0  0  0  0  0  0  0  0  0  0  0  0
   11.3860   39.6770   31.3110 O   0  0  0  0  0  0  0  0  0  0  0  0
   10.1180   39.6740   29.2300 C   0  0  0  0  0  0  0  0  0  0  0  0
    9.2390   36.9850   29.5280 C   0  0  0  0  0  0  0  0  0  0  0  0
    6.3780   34.6950   28.6820 N   0  0  0  0  0  0  0  0  0  0  0  0
    8.8780   39.2810   29.8690 O   0  0  0  0  0  0  0  0  0  0  0  0
  2 10  1  0
  2  6  1  0
  2  7  1  0
  2 12  1  0
  4 11  1  0
  5  3  1  0
  5  8  1  0
  6  4  1  0
  6  7  1  0
  9  5  1  0
  9 12  1  0
 10  1  1  0
 10  6  1  0
M  END
$$$$

     RDKit          3D

 12 13  0  0  0  0  0  0  0  0999 V2000
   10.7080   37.4230   29.5980 N   0  0  0  0  0  0  0  0  0  0  0  0
   10.4760   38.7110   30.1550 C   0  0  0  0  0  0  0  0  0  0  0  0
    7.3300   40.0320   28.7810 C   0  0  0  0  0  0  0  0  0  0  0  0
    7.4700   37.6750   29.3320 C   0  0  0  0  0  0  0  0  0  0  0  0
   10.2340   37.0310   28.3250 C   0  0  0  0  0  0  0  0  0  0  0  0
    9.7020   38.1170   27.3890 C   0  0  0  0  0  0  0  0  0  0  0  0
   10.0210   35.9010   27.8520 O   0  0  0  0  0  0  0  0  0  0  0  0
    7.9990   39.0470   29.6100 C   0  0  0  0  0  0  0  0  0  0  0  0
   10.9560   39.1490   31.2340 N   0  0  0  0  0  0  0  0  0  0  0  0
    9.4670   39.5620   27.9480 C   0  0  0  0  0  0  0  0  0  0  0  0
    8.2080   40.3400   27.6010 C   0  0  0  0  0  0  0  0  0  0  0  0
    9.4400   39.6740   29.4630 C   0  0  0  0  0  0  0  0  0  0  0  0
  1  2  2  0
  2  9  1  0
  3  8  1  0
  5  1  2  0
  6  5  1  0
  7  5  2  0
  8  4  1  0
 10  6  1  0
 10 12  1  0
 11 10  1  0
 11  3  1  0
 12  8  1  0
 12  2  1  0
M  END
$$$$

     RDKit          3D

 20 22  0  0  0  0  0  0  0  0999 V2000
    6.3650   34.7490   29.2490 C   0  0  0  0  0  0  0  0  0  0  0  0
    9.9370   38.8320   27.8490 C   0  0  0  0  0  0  0  0  0  0  0  0
    9.4070   39.0820   29.1060 C   0  0  0  0  0  0  0  0  0  0  0  0
    9.0150   40.9090   30.5870 C   0  0  0  0  0  0  0  0  0  0  0  0
    8.3320   40.2370   31.3600 O   0  0  0  0  0  0  0  0  0  0  0  0
    8.7840   32.2220   28.4270 N   0  0  0  0  0  0  0  0  0  0  0  0
    9.9200   41.0630   28.2340 C   0  0  0  0  0  0  0  0  0  0  0  0
    7.1270   35.9120   29.1720 C   0  0  0  0  0  0  0  0  0  0  0  0
   10.6660   42.1020   32.0490 C   0  0  0  0  0  0  0  0  0  0  0  0
    9.0320   34.6010   28.5190 C   0  0  0  0  0  0  0  0  0  0  0  0
    9.3550   40.4640   29.3430 N   0  0  0  0  0  0  0  0  0  0  0  0
    6.9000   33.5080   29.0310 N   0  0  0  0  0  0  0  0  0  0  0  0
   10.2040   39.9790   27.2530 C   0  0  0  0  0  0  0  0  0  0  0  0
   11.5630   40.9220   31.6610 C   0  0  0  0  0  0  0  0  0  0  0  0
    9.9000   37.3700   27.6120 C   0  0  0  0  0  0  0  0  0  0  0  0
    9.4650   42.2540   31.0830 C   0  0  0  0  0  0  0  0  0  0  0  0
    9.0890   37.9780   29.6280 C   0  0  0  0  0  0  0  0  0  0  0  0
    8.2850   33.4590   28.6230 C   0  0  0  0  0  0  0  0  0  0  0  0
    9.2150   36.9510   28.6860 N   0  0  0  0  0  0  0  0  0  0  0  0
    8.4440   35.8390   28.7870 C   0  0  0  0  0  0  0  0  0  0  0  0
  2  3  2  0
  3 11  1  0
  3 17  1  0
  4 16  1  0
  4  5  2  0
  6 18  1  0
  7 11  1  0
  8  1  1  0
 10 18  1  0
 10 20  1  0
 11  4  1  0
 12  1  1  0
 13  2  1  0
 13  7  2  0
 14  9  1  0
 15  2  1  0
 15 19  1  0
 16  9  1  0
 18 12  2  0
 19 20  1  0
 19 17  1  0
 20  8  2  0
M  END
$$$$

     RDKit          3D

 13 14  0  0  0  0  0  0  0  0999 V2000
    8.3710   35.0970   28.7410 C   0  0  0  0  0  0  0  0  0  0  0  0
    9.4470   39.6390   28.7490 C   0  0  0  0  0  0  0  0  0  0  0  0
    8.7500   33.9320   27.9820 C   0  0  0  0  0  0  0  0  0  0  0  0
   10.9700   40.4250   30.1660 C   0  0  0  0  0  0  0  0  0  0  0  0
   10.1670   39.2330   30.8860 S   0  0  0  0  0  0  0  0  0  0  0  0
    8.7190   37.2680   29.5680 C   0  0  0  0  0  0  0  0  0  0  0  0
   10.9480   40.2180   28.8090 O   0  0  0  0  0  0  0  0  0  0  0  0
    9.1650   36.2310   28.7630 C   0  0  0  0  0  0  0  0  0  0  0  0
    7.5100   37.2270   30.3360 C   0  0  0  0  0  0  0  0  0  0  0  0
    7.1960   35.0030   29.4450 C   0  0  0  0  0  0  0  0  0  0  0  0
   12.1190   41.1510   30.7870 C   0  0  0  0  0  0  0  0  0  0  0  0
    6.7020   36.0890   30.2250 C   0  0  0  0  0  0  0  0  0  0  0  0
    9.4460   38.5810   29.4980 C   0  0  0  0  0  0  0  0  0  0  0  0
  1  8  2  0
  1 10  1  0
  2  7  1  0
  2 13  1  0
  3  1  1  0
  4 11  1  0
  4  5  1  0
  6  9  2  0
  7  4  1  0
  8  6  1  0
 10 12  2  0
 12  9  1  0
 13  6  1  0
 13  5  1  0
M  END
$$$$

     RDKit          3D

  9  9  0  0  0  0  0  0  0  0999 V2000
    9.2920   38.2720   27.7470 C   0  0  0  0  0  0  0  0  0  0  0  0
    9.6870   40.7550   26.9460 N   0  0  0  0  0  0  0  0  0  0  0  0
   10.1360   40.2970   28.0270 C   0  0  0  0  0  0  0  0  0  0  0  0
    7.9090   38.5540   30.1970 C   0  0  0  0  0  0  0  0  0  0  0  0
    8.9230   39.2220   29.8770 C   0  0  0  0  0  0  0  0  0  0  0  0
    9.2270   35.8470   28.1380 C   0  0  0  0  0  0  0  0  0  0  0  0
    8.7000   37.1660   28.6160 C   0  0  0  0  0  0  0  0  0  0  0  0
    9.4510   39.3770   28.4250 C   0  0  0  0  0  0  0  0  0  0  0  0
    7.9490   37.3200   29.5930 C   0  0  0  0  0  0  0  0  0  0  0  0
  1  8  1  0
  1  7  1  0
  2  3  1  0
  5  4  1  0
  7  6  1  0
  7  9  1  0
  8  3  1  0
  8  5  1  0
  9  4  1  0
M  END
$$$$

     RDKit          3D

 18 19  0  0  0  0  0  0  0  0999 V2000
    9.3260   35.0620   27.9140 C   0  0  0  0  0  0  0  0  0  0  0  0
    9.7160   39.6330   34.4240 N   0  0  0  0  0  0  0  0  0  0  0  0
    9.1720   37.0620   29.1970 C   0  0  0  0  0  0  0  0  0  0  0  0
    9.3470   39.7460   30.0800 N   0  0  0  0  0  0  0  0  0  0  0  0
    7.9370   34.9130   28.0970 C   0  0  0  0  0  0  0  0  0  0  0  0
    7.8830   37.0710   29.0980 C   0  0  0  0  0  0  0  0  0  0  0  0
    9.9860   36.1310   28.5080 C   0  0  0  0  0  0  0  0  0  0  0  0
    7.8380   41.1720   28.3300 C   0  0  0  0  0  0  0  0  0  0  0  0
    9.7610   38.2620   30.1280 C   0  0  0  0  0  0  0  0  0  0  0  0
    9.1610   38.1950   32.6170 C   0  0  0  0  0  0  0  0  0  0  0  0
    7.2540   35.8620   28.6740 C   0  0  0  0  0  0  0  0  0  0  0  0
    9.1460   40.4870   32.2710 C   0  0  0  0  0  0  0  0  0  0  0  0
    9.6590   39.5220   33.0260 C   0  0  0  0  0  0  0  0  0  0  0  0
    7.4830   40.7270   26.9530 C   0  0  0  0  0  0  0  0  0  0  0  0
    8.7160   40.3790   29.0470 C   0  0  0  0  0  0  0  0  0  0  0  0
    9.9270   40.3910   31.0560 C   0  0  0  0  0  0  0  0  0  0  0  0
    9.4470   37.8870   31.4060 C   0  0  0  0  0  0  0  0  0  0  0  0
    9.8740   40.3020   27.9340 O   0  0  0  0  0  0  0  0  0  0  0  0
  1  5  2  0
  1  7  1  0
  4  9  1  0
  4 16  1  0
  5 11  1  0
  6  3  1  0
  7  3  2  0
  8 15  1  0
  9  3  1  0
  9 17  1  0
 10 13  1  0
 11  6  2  0
 12 13  1  0
 13  2  1  0
 14  8  1  0
 15  4  1  0
 16 12  1  0
 17 10  1  0
 18 15  2  0
M  END
$$$$

     RDKit          3D

 20 21  0  0  0  0  0  0  0  0999 V2000
    9.3170   35.8970   28.4850 C   0  0  0  0  0  0  0  0  0  0  0  0
   10.1450   41.2820   30.1470 N   0  0  0  0  0  0  0  0  0  0  0  0
   11.1080   42.5590   32.2390 O   0  0  0  0  0  0  0  0  0  0  0  0
   10.5390   41.2760   32.5340 C   0  0  0  0  0  0  0  0  0  0  0  0
    9.6470   38.9340   26.8520 O   0  0  0  0  0  0  0  0  0  0  0  0
    7.4470   40.2470   29.6320 O   0  0  0  0  0  0  0  0  0  0  0  0
    6.8050   36.5450   29.3870 C   0  0  0  0  0  0  0  0  0  0  0  0
    8.3030   40.8850   28.6680 C   0  0  0  0  0  0  0  0  0  0  0  0
   11.9170   42.6370   31.0810 C   0  0  0  0  0  0  0  0  0  0  0  0
    6.2500   34.2350   29.5540 N   0  0  0  0  0  0  0  0  0  0  0  0
   10.4090   40.4010   31.3240 C   0  0  0  0  0  0  0  0  0  0  0  0
    9.8570   38.3520   27.9290 C   0  0  0  0  0  0  0  0  0  0  0  0
   11.1440   42.3700   29.8530 C   0  0  0  0  0  0  0  0  0  0  0  0
   10.5390   39.3140   28.8890 O   0  0  0  0  0  0  0  0  0  0  0  0
    7.7190   37.5700   29.0020 C   0  0  0  0  0  0  0  0  0  0  0  0
    9.8010   40.6170   28.9300 C   0  0  0  0  0  0  0  0  0  0  0  0
   10.5810   35.6160   28.1870 O   0  0  0  0  0  0  0  0  0  0  0  0
    7.1610   35.2240   29.1910 C   0  0  0  0  0  0  0  0  0  0  0  0
    8.9860   37.2860   28.5150 C   0  0  0  0  0  0  0  0  0  0  0  0
    8.4770   34.9280   28.7000 C   0  0  0  0  0  0  0  0  0  0  0  0
  1 19  2  0
  1 20  1  0
  2 11  1  0
  3  4  1  0
  5 12  2  0
  8  6  1  0
  9  3  1  0
 11  4  1  0
 12 19  1  0
 12 14  1  0
 13  2  1  0
 13  9  1  0
 14 16  1  0
 15  7  2  0
 16  8  1  0
 16  2  1  0
 17  1  1  0
 18  7  1  0
 18 10  1  0
 19 15  1  0
 20 18  2  0
M  END
$$$$
