
     RDKit          3D

 12 12  0  0  0  0  0  0  0  0999 V2000
    8.2680  -33.7920  -33.4310 C   0  0  0  0  0  0  0  0  0  0  0  0
   11.7170  -33.7520  -32.2700 C   0  0  0  0  0  0  0  0  0  0  0  0
    7.5910  -34.2730  -34.4500 N   0  0  0  0  0  0  0  0  0  0  0  0
    7.4920  -32.9830  -32.4410 C   0  0  0  0  0  0  0  0  0  0  0  0
   12.4480  -33.4840  -28.5800 C   0  0  0  0  0  0  0  0  0  0  0  0
   13.6090  -32.9730  -31.0370 O   0  0  0  0  0  0  0  0  0  0  0  0
    9.5420  -33.8370  -33.2480 C   0  0  0  0  0  0  0  0  0  0  0  0
    9.4870  -32.7120  -31.1530 C   0  0  0  0  0  0  0  0  0  0  0  0
   10.2220  -33.3990  -32.1910 C   0  0  0  0  0  0  0  0  0  0  0  0
    8.1860  -32.4660  -31.4180 C   0  0  0  0  0  0  0  0  0  0  0  0
   11.7010  -33.1860  -29.8290 N   0  0  0  0  0  0  0  0  0  0  0  0
   12.3950  -33.2890  -30.9500 C   0  0  0  0  0  0  0  0  0  0  0  0
  1  7  2  0
  1  4  1  0
  2  9  1  0
  2 12  1  0
  3  1  1  0
  4 10  2  0
  6 12  2  0
  7  9  1  0
  9  8  2  0
 10  8  1  0
 11  5  1  0
 12 11  1  0
M  END
$$$$

     RDKit          3D

 11 12  0  0  0  0  0  0  0  0999 V2000
    8.4010  -31.9320  -30.9750 C   0  0  0  0  0  0  0  0  0  0  0  0
   10.8200  -34.3300  -31.2770 C   0  0  0  0  0  0  0  0  0  0  0  0
    7.8270  -33.0630  -32.8560 C   0  0  0  0  0  0  0  0  0  0  0  0
   10.5910  -33.4420  -30.2130 C   0  0  0  0  0  0  0  0  0  0  0  0
   11.7940  -33.9010  -30.8610 N   0  0  0  0  0  0  0  0  0  0  0  0
    7.7800  -31.2330  -30.3300 N   0  0  0  0  0  0  0  0  0  0  0  0
    9.7390  -33.6230  -31.2710 C   0  0  0  0  0  0  0  0  0  0  0  0
   11.0230  -34.6490  -32.3100 O   0  0  0  0  0  0  0  0  0  0  0  0
    5.4730  -30.7940  -31.2060 C   0  0  0  0  0  0  0  0  0  0  0  0
    7.0240  -30.9430  -31.5670 C   0  0  0  0  0  0  0  0  0  0  0  0
    8.7500  -32.7420  -31.8530 C   0  0  0  0  0  0  0  0  0  0  0  0
  1  6  1  0
  2  8  1  0
  2  7  1  0
  2  5  1  0
  2  4  1  0
  4  5  1  0
  7 11  1  0
  7  4  1  0
 10  9  1  0
 10  6  1  0
 11  3  1  0
 11  1  1  0
M  END
$$$$

     RDKit          3D

 14 15  0  0  0  0  0  0  0  0999 V2000
   13.2130  -32.8170  -27.9980 C   0  0  0  0  0  0  0  0  0  0  0  0
    6.4390  -33.2930  -33.7520 N   0  0  0  0  0  0  0  0  0  0  0  0
   12.1820  -33.5740  -30.2410 C   0  0  0  0  0  0  0  0  0  0  0  0
   11.5980  -34.0420  -31.3430 C   0  0  0  0  0  0  0  0  0  0  0  0
    8.4290  -34.1390  -32.7770 C   0  0  0  0  0  0  0  0  0  0  0  0
    9.6240  -32.9460  -30.9440 C   0  0  0  0  0  0  0  0  0  0  0  0
   12.1290  -31.9880  -28.5040 O   0  0  0  0  0  0  0  0  0  0  0  0
   10.4600  -33.7040  -31.6840 C   0  0  0  0  0  0  0  0  0  0  0  0
    7.4270  -32.1320  -31.9100 C   0  0  0  0  0  0  0  0  0  0  0  0
    8.4330  -33.0570  -31.8700 C   0  0  0  0  0  0  0  0  0  0  0  0
   11.4830  -32.7420  -29.5270 C   0  0  0  0  0  0  0  0  0  0  0  0
    7.4210  -34.2030  -33.7300 C   0  0  0  0  0  0  0  0  0  0  0  0
    6.4180  -32.2460  -32.7740 C   0  0  0  0  0  0  0  0  0  0  0  0
   10.2270  -32.2710  -29.9250 C   0  0  0  0  0  0  0  0  0  0  0  0
  2 12  2  0
  2 13  1  0
  3 11  1  0
  4  3  2  0
  5 10  2  0
  6 14  1  0
  7  1  1  0
  8  4  1  0
  8  6  2  0
  9 10  1  0
 10  6  1  0
 11  7  1  0
 12  5  1  0
 13  9  2  0
 14 11  2  0
M  END
$$$$

     RDKit          3D

  3  2  0  0  0  0  0  0  0  0999 V2000
    8.8530  -27.1100  -34.4540 O   0  0  0  0  0  0  0  0  0  0  0  0
    8.8430  -27.4290  -34.2080 Br  0  0  0  0  0  0  0  0  0  0  0  0
    8.4660  -27.0920  -34.3440 O   0  0  0  0  0  0  0  0  0  0  0  0
  1  3  1  0
  1  2  1  0
M  END
$$$$

     RDKit          3D

 68 77  0  0  0  0  0  0  0  0999 V2000
   10.8670  -33.8970  -27.7890 O   0  0  0  0  0  0  0  0  0  0  0  0
   10.3930  -32.8520  -29.0890 C   0  0  0  0  0  0  0  0  0  0  0  0
   11.1820  -33.7820  -31.9660 C   0  0  0  0  0  0  0  0  0  0  0  0
    6.8830  -27.8270  -30.2860 C   0  0  0  0  0  0  0  0  0  0  0  0
   11.9530  -26.7330  -28.4400 C   0  0  0  0  0  0  0  0  0  0  0  0
    4.3920  -33.6010  -28.3140 C   0  0  0  0  0  0  0  0  0  0  0  0
   13.1450  -26.9470  -29.4940 C   0  0  0  0  0  0  0  0  0  0  0  0
    8.3650  -30.7130  -28.3970 C   0  0  0  0  0  0  0  0  0  0  0  0
    8.2240  -26.7720  -32.5060 C   0  0  0  0  0  0  0  0  0  0  0  0
    9.8500  -35.4690  -33.5010 O   0  0  0  0  0  0  0  0  0  0  0  0
   12.1220  -29.2920  -28.2730 C   0  0  0  0  0  0  0  0  0  0  0  0
    5.8280  -28.3270  -31.4970 C   0  0  0  0  0  0  0  0  0  0  0  0
   13.6010  -28.3550  -29.6230 C   0  0  0  0  0  0  0  0  0  0  0  0
    5.3420  -26.0950  -33.3090 C   0  0  0  0  0  0  0  0  0  0  0  0
    6.4960  -28.1150  -32.6260 O   0  0  0  0  0  0  0  0  0  0  0  0
   14.0490  -30.8510  -31.2790 C   0  0  0  0  0  0  0  0  0  0  0  0
   11.1960  -34.1170  -30.6860 C   0  0  0  0  0  0  0  0  0  0  0  0
    9.0450  -28.8770  -27.7050 C   0  0  0  0  0  0  0  0  0  0  0  0
   13.1300  -30.5680  -29.9520 C   0  0  0  0  0  0  0  0  0  0  0  0
   10.1540  -30.5400  -29.1110 O   0  0  0  0  0  0  0  0  0  0  0  0
    7.9620  -36.9360  -34.5060 C   0  0  0  0  0  0  0  0  0  0  0  0
   12.3130  -30.5380  -30.0160 O   0  0  0  0  0  0  0  0  0  0  0  0
   12.9370  -33.3350  -30.1050 F   0  0  0  0  0  0  0  0  0  0  0  0
   13.7670  -33.1920  -35.1350 O   0  0  0  0  0  0  0  0  0  0  0  0
    5.3060  -35.4640  -36.7470 O   0  0  0  0  0  0  0  0  0  0  0  0
    6.3640  -29.6360  -28.6120 O   0  0  0  0  0  0  0  0  0  0  0  0
    6.6830  -26.8220  -33.1160 C   0  0  0  0  0  0  0  0  0  0  0  0
   12.2380  -29.2810  -33.4710 C   0  0  0  0  0  0  0  0  0  0  0  0
   13.5270  -31.5370  -33.3310 C   0  0  0  0  0  0  0  0  0  0  0  0
   12.3020  -33.4350  -30.1240 O   0  0  0  0  0  0  0  0  0  0  0  0
   13.2440  -30.4980  -32.3570 C   0  0  0  0  0  0  0  0  0  0  0  0
   11.3130  -28.0650  -28.5470 O   0  0  0  0  0  0  0  0  0  0  0  0
   11.6430  -34.2930  -34.6040 O   0  0  0  0  0  0  0  0  0  0  0  0
    9.1850  -29.6070  -28.7860 C   0  0  0  0  0  0  0  0  0  0  0  0
    8.3200  -25.1830  -32.2150 O   0  0  0  0  0  0  0  0  0  0  0  0
   11.7890  -33.0110  -32.3450 O   0  0  0  0  0  0  0  0  0  0  0  0
   13.3610  -29.2750  -32.8100 C   0  0  0  0  0  0  0  0  0  0  0  0
    5.3520  -35.1470  -35.5430 O   0  0  0  0  0  0  0  0  0  0  0  0
   13.3200  -28.8340  -30.6310 O   0  0  0  0  0  0  0  0  0  0  0  0
    5.7590  -32.0350  -28.3860 C   0  0  0  0  0  0  0  0  0  0  0  0
   10.0290  -33.8680  -30.0490 C   0  0  0  0  0  0  0  0  0  0  0  0
   11.8090  -33.5910  -26.6710 C   0  0  0  0  0  0  0  0  0  0  0  0
   11.4180  -30.6390  -28.7720 C   0  0  0  0  0  0  0  0  0  0  0  0
    6.8570  -31.1210  -29.0730 C   0  0  0  0  0  0  0  0  0  0  0  0
    7.9400  -28.2410  -30.9030 C   0  0  0  0  0  0  0  0  0  0  0  0
    6.4450  -25.5190  -33.6210 C   0  0  0  0  0  0  0  0  0  0  0  0
   14.8830  -32.5640  -32.7010 O   0  0  0  0  0  0  0  0  0  0  0  0
    3.6560  -32.4810  -27.7380 O   0  0  0  0  0  0  0  0  0  0  0  0
    8.8460  -34.8170  -35.3510 O   0  0  0  0  0  0  0  0  0  0  0  0
   10.6860  -34.6340  -33.4600 C   0  0  0  0  0  0  0  0  0  0  0  0
    8.9930  -28.6430  -29.8790 C   0  0  0  0  0  0  0  0  0  0  0  0
    5.5030  -33.1890  -28.9860 O   0  0  0  0  0  0  0  0  0  0  0  0
    7.5650  -26.7330  -30.6690 O   0  0  0  0  0  0  0  0  0  0  0  0
    8.7410  -28.0590  -32.0350 O   0  0  0  0  0  0  0  0  0  0  0  0
    9.3230  -36.6310  -33.7610 C   0  0  0  0  0  0  0  0  0  0  0  0
   13.5640  -28.0290  -31.7030 C   0  0  0  0  0  0  0  0  0  0  0  0
    6.4610  -34.8750  -34.9070 C   0  0  0  0  0  0  0  0  0  0  0  0
   12.4790  -32.5130  -33.1290 C   0  0  0  0  0  0  0  0  0  0  0  0
   10.5470  -26.0530  -26.1060 C   0  0  0  0  0  0  0  0  0  0  0  0
   12.7040  -33.4780  -34.3540 C   0  0  0  0  0  0  0  0  0  0  0  0
   13.3730  -29.3500  -28.8300 C   0  0  0  0  0  0  0  0  0  0  0  0
    7.6610  -35.6750  -35.3110 C   0  0  0  0  0  0  0  0  0  0  0  0
    8.4690  -35.4960  -36.4600 C   0  0  0  0  0  0  0  0  0  0  0  0
    4.3860  -31.4300  -27.7980 C   0  0  0  0  0  0  0  0  0  0  0  0
    4.0120  -30.0840  -28.1320 C   0  0  0  0  0  0  0  0  0  0  0  0
   11.3590  -32.0120  -28.9410 O   0  0  0  0  0  0  0  0  0  0  0  0
    9.8940  -26.4440  -27.2670 C   0  0  0  0  0  0  0  0  0  0  0  0
   10.2820  -27.9790  -27.5400 C   0  0  0  0  0  0  0  0  0  0  0  0
  1 42  1  0
  2 66  1  0
  2  1  1  0
  3 36  1  0
  3 17  1  0
  4 12  1  0
  6 48  1  0
  7  5  1  0
  9 35  2  0
  9 54  1  0
 13  7  1  0
 13 61  1  0
 14 27  1  0
 15 12  1  0
 17 30  1  0
 17 41  1  0
 18 68  1  0
 19 16  1  0
 19 61  1  0
 20 34  1  0
 20 43  1  0
 21 55  1  0
 22 19  1  0
 22 43  1  0
 24 60  2  0
 25 38  1  0
 27 15  1  0
 27  9  1  0
 29 58  1  0
 29 47  1  0
 29 31  1  0
 30 23  1  0
 31 16  1  0
 32  5  1  0
 32 68  1  0
 33 60  1  0
 33 50  1  0
 34 51  1  0
 34  8  1  0
 34 18  1  0
 37 28  1  0
 37 31  1  0
 37 56  1  0
 38 57  1  0
 39 13  1  0
 40 44  1  0
 40 64  1  0
 41  2  1  0
 43 11  1  0
 44 26  1  0
 44  8  1  0
 45 53  1  0
 45  4  1  0
 45 51  1  0
 46 14  1  0
 46 27  1  0
 49 62  1  0
 50 10  1  0
 50  3  1  0
 52 40  1  0
 52  6  1  0
 53  4  1  0
 54 45  1  0
 55 10  1  0
 56 39  1  0
 58 60  1  0
 58 36  1  0
 61 11  1  0
 62 57  1  0
 62 21  1  0
 63 49  1  0
 63 62  1  0
 64 65  1  0
 64 48  1  0
 66 43  1  0
 67 59  1  0
 68 67  1  0
M  END
$$$$

     RDKit          3D

 13 13  0  0  0  0  0  0  0  0999 V2000
    7.9860  -32.1260  -31.0620 C   0  0  0  0  0  0  0  0  0  0  0  0
    8.2370  -31.4680  -30.0870 O   0  0  0  0  0  0  0  0  0  0  0  0
   11.7780  -33.8380  -31.8980 C   0  0  0  0  0  0  0  0  0  0  0  0
    9.1540  -32.7340  -31.5440 C   0  0  0  0  0  0  0  0  0  0  0  0
    7.4950  -32.8360  -33.1570 O   0  0  0  0  0  0  0  0  0  0  0  0
    5.4970  -31.7540  -30.6980 C   0  0  0  0  0  0  0  0  0  0  0  0
    9.4600  -33.5880  -32.6230 C   0  0  0  0  0  0  0  0  0  0  0  0
    6.8200  -31.9920  -31.5560 N   0  0  0  0  0  0  0  0  0  0  0  0
   11.3510  -33.2710  -30.6810 C   0  0  0  0  0  0  0  0  0  0  0  0
    6.2630  -32.6390  -32.6460 C   0  0  0  0  0  0  0  0  0  0  0  0
   10.0710  -32.7330  -30.4840 C   0  0  0  0  0  0  0  0  0  0  0  0
    4.9540  -32.5860  -32.9800 C   0  0  0  0  0  0  0  0  0  0  0  0
   10.7760  -33.9970  -32.9130 C   0  0  0  0  0  0  0  0  0  0  0  0
  1  2  2  0
  3  9  1  0
  4  1  1  0
  4 11  1  0
  5 10  2  0
  7  4  2  0
  8  1  1  0
  8  6  1  0
  9 11  2  0
 10  8  1  0
 12 10  1  0
 13  7  1  0
 13  3  2  0
M  END
$$$$

     RDKit          3D

 11 12  0  0  0  0  0  0  0  0999 V2000
   10.3330  -36.2150  -32.3580 N   0  0  0  0  0  0  0  0  0  0  0  0
    9.8010  -32.2790  -30.8580 C   0  0  0  0  0  0  0  0  0  0  0  0
   10.9810  -34.2240  -30.7790 C   0  0  0  0  0  0  0  0  0  0  0  0
   11.4660  -32.5270  -28.8880 S   0  0  0  0  0  0  0  0  0  0  0  0
   11.0820  -32.9020  -30.4600 C   0  0  0  0  0  0  0  0  0  0  0  0
    8.2010  -33.2440  -32.7030 C   0  0  0  0  0  0  0  0  0  0  0  0
    8.8880  -32.6230  -31.7200 C   0  0  0  0  0  0  0  0  0  0  0  0
    8.5550  -35.6080  -33.9220 S   0  0  0  0  0  0  0  0  0  0  0  0
    9.4690  -36.5750  -33.3670 C   0  0  0  0  0  0  0  0  0  0  0  0
   10.0340  -34.7290  -31.8380 C   0  0  0  0  0  0  0  0  0  0  0  0
    8.9590  -34.4910  -32.7700 C   0  0  0  0  0  0  0  0  0  0  0  0
  1 10  2  0
  2  5  1  0
  3  5  1  0
  5  4  1  0
  6  7  1  0
  7  2  1  0
  8  9  1  0
  8 11  1  0
  9  1  1  0
 10  3  1  0
 11  6  1  0
 11 10  1  0
M  END
$$$$

     RDKit          3D

 16 18  0  0  0  0  0  0  0  0999 V2000
    9.2340  -32.0910  -30.3610 C   0  0  0  0  0  0  0  0  0  0  0  0
    5.4280  -34.4820  -34.9450 Cl  0  0  0  0  0  0  0  0  0  0  0  0
    7.8500  -35.0260  -34.1740 C   0  0  0  0  0  0  0  0  0  0  0  0
    9.0140  -34.0390  -32.3380 C   0  0  0  0  0  0  0  0  0  0  0  0
   11.3630  -33.1180  -29.4270 C   0  0  0  0  0  0  0  0  0  0  0  0
    6.8050  -34.1470  -33.8740 C   0  0  0  0  0  0  0  0  0  0  0  0
   10.2260  -33.0150  -30.4630 C   0  0  0  0  0  0  0  0  0  0  0  0
   10.1530  -33.9690  -31.5410 C   0  0  0  0  0  0  0  0  0  0  0  0
    4.7670  -32.3860  -33.5830 N   0  0  0  0  0  0  0  0  0  0  0  0
    6.1020  -31.3300  -31.9570 C   0  0  0  0  0  0  0  0  0  0  0  0
    7.1240  -31.1810  -31.1550 C   0  0  0  0  0  0  0  0  0  0  0  0
    5.9980  -32.3000  -32.8940 N   0  0  0  0  0  0  0  0  0  0  0  0
    8.9450  -34.9620  -33.3300 C   0  0  0  0  0  0  0  0  0  0  0  0
    8.0640  -33.0720  -32.2100 C   0  0  0  0  0  0  0  0  0  0  0  0
    8.1780  -32.1250  -31.2390 C   0  0  0  0  0  0  0  0  0  0  0  0
    6.9710  -33.1920  -33.0390 C   0  0  0  0  0  0  0  0  0  0  0  0
  2  6  1  0
  3  6  2  0
  3 13  1  0
  4 14  1  0
  4  8  1  0
  6 16  1  0
  7  1  1  0
  7  5  1  0
  8  7  2  0
  9 12  1  0
 10 11  2  0
 12 10  1  0
 13  4  2  0
 14 15  1  0
 15 11  1  0
 15  1  2  0
 16 12  1  0
 16 14  2  0
M  END
$$$$

     RDKit          3D

 27 29  0  0  0  0  0  0  0  0999 V2000
   11.2910  -33.9030  -28.6010 C   0  0  0  0  0  0  0  0  0  0  0  0
   10.7250  -29.8470  -27.5550 C   0  0  0  0  0  0  0  0  0  0  0  0
   10.7410  -32.8950  -28.9760 C   0  0  0  0  0  0  0  0  0  0  0  0
   14.5770  -28.8770  -28.6380 O   0  0  0  0  0  0  0  0  0  0  0  0
   13.8170  -29.4160  -30.6690 O   0  0  0  0  0  0  0  0  0  0  0  0
    4.5480  -31.7850  -30.3820 C   0  0  0  0  0  0  0  0  0  0  0  0
    7.1720  -32.2740  -32.6790 C   0  0  0  0  0  0  0  0  0  0  0  0
    7.8820  -32.0780  -31.6340 C   0  0  0  0  0  0  0  0  0  0  0  0
    7.0490  -31.8640  -30.4790 N   0  0  0  0  0  0  0  0  0  0  0  0
    9.6560  -34.8500  -32.5650 C   0  0  0  0  0  0  0  0  0  0  0  0
    5.9140  -32.1340  -32.4790 N   0  0  0  0  0  0  0  0  0  0  0  0
   11.7880  -33.0140  -30.0670 C   0  0  0  0  0  0  0  0  0  0  0  0
    9.7410  -35.2990  -33.9340 C   0  0  0  0  0  0  0  0  0  0  0  0
   11.7760  -30.4950  -28.0440 C   0  0  0  0  0  0  0  0  0  0  0  0
   13.6710  -29.0430  -29.3190 C   0  0  0  0  0  0  0  0  0  0  0  0
    8.7100  -34.9040  -34.5800 O   0  0  0  0  0  0  0  0  0  0  0  0
    9.3820  -33.8100  -31.6460 C   0  0  0  0  0  0  0  0  0  0  0  0
   12.2790  -28.9780  -28.9210 O   0  0  0  0  0  0  0  0  0  0  0  0
    5.8760  -31.8000  -31.1360 C   0  0  0  0  0  0  0  0  0  0  0  0
    4.1750  -31.8460  -29.2840 N   0  0  0  0  0  0  0  0  0  0  0  0
   10.5680  -36.0570  -34.4250 O   0  0  0  0  0  0  0  0  0  0  0  0
   11.0890  -31.2460  -29.3390 C   0  0  0  0  0  0  0  0  0  0  0  0
   12.6910  -31.3650  -29.1480 O   0  0  0  0  0  0  0  0  0  0  0  0
   10.7440  -33.9910  -31.0960 C   0  0  0  0  0  0  0  0  0  0  0  0
   11.5180  -33.0370  -31.0670 O   0  0  0  0  0  0  0  0  0  0  0  0
    9.1700  -32.5250  -31.5780 N   0  0  0  0  0  0  0  0  0  0  0  0
    3.2680  -32.1760  -30.3520 C   0  0  0  0  0  0  0  0  0  0  0  0
  3  1  1  0
  5 15  2  0
  6 27  1  0
  6 20  2  0
  7 11  1  0
  7  8  1  0
  8 26  1  0
  8  9  2  0
 11 19  2  0
 12  3  1  0
 13 10  1  0
 14  2  1  0
 15 18  1  0
 15  4  1  0
 16 13  2  0
 17 10  1  0
 17 26  1  0
 17 24  1  0
 18 14  1  0
 19  9  2  0
 19  6  1  0
 21 13  1  0
 22 23  1  0
 22  3  1  0
 22 14  1  0
 23 14  1  0
 24 25  1  0
 25 12  1  0
 27 20  1  0
M  END
$$$$

     RDKit          3D

 13 14  0  0  0  0  0  0  0  0999 V2000
    8.9810  -37.3650  -35.3520 C   0  0  0  0  0  0  0  0  0  0  0  0
    8.3910  -34.3460  -33.3000 C   0  0  0  0  0  0  0  0  0  0  0  0
    7.0700  -32.5220  -32.6240 C   0  0  0  0  0  0  0  0  0  0  0  0
   10.9170  -34.0790  -32.1440 C   0  0  0  0  0  0  0  0  0  0  0  0
    9.2140  -36.7120  -33.8470 C   0  0  0  0  0  0  0  0  0  0  0  0
    7.3030  -33.6070  -33.4930 C   0  0  0  0  0  0  0  0  0  0  0  0
    7.2090  -35.9900  -34.5890 O   0  0  0  0  0  0  0  0  0  0  0  0
    9.1710  -32.9280  -31.4430 C   0  0  0  0  0  0  0  0  0  0  0  0
    7.9650  -32.2830  -31.6330 C   0  0  0  0  0  0  0  0  0  0  0  0
    8.4380  -35.6080  -34.1360 C   0  0  0  0  0  0  0  0  0  0  0  0
   11.1220  -33.4990  -30.9470 C   0  0  0  0  0  0  0  0  0  0  0  0
   10.0910  -32.8520  -30.5440 O   0  0  0  0  0  0  0  0  0  0  0  0
    9.4520  -33.9100  -32.3910 C   0  0  0  0  0  0  0  0  0  0  0  0
  1  5  1  0
  2 13  1  0
  3  9  2  0
  4 11  1  0
  6  2  2  0
  6  3  1  0
  8 12  1  0
  9  8  1  0
 10  7  1  0
 10  5  1  0
 10  2  1  0
 11 12  1  0
 13  4  1  0
 13  8  2  0
M  END
$$$$

     RDKit          3D

 11 11  0  0  0  0  0  0  0  0999 V2000
    9.2180  -33.3590  -31.7810 C   0  0  0  0  0  0  0  0  0  0  0  0
    9.5230  -31.9740  -30.0680 O   0  0  0  0  0  0  0  0  0  0  0  0
    6.9470  -31.1810  -30.7010 O   0  0  0  0  0  0  0  0  0  0  0  0
    8.5940  -32.4780  -31.1790 C   0  0  0  0  0  0  0  0  0  0  0  0
    7.4180  -32.0200  -31.4670 C   0  0  0  0  0  0  0  0  0  0  0  0
    8.6830  -33.9550  -32.9390 C   0  0  0  0  0  0  0  0  0  0  0  0
   11.1310  -34.1370  -31.4710 N   0  0  0  0  0  0  0  0  0  0  0  0
    7.0350  -34.1340  -34.4500 C   0  0  0  0  0  0  0  0  0  0  0  0
    7.4630  -33.4700  -33.3370 C   0  0  0  0  0  0  0  0  0  0  0  0
    6.9160  -32.4860  -32.5630 C   0  0  0  0  0  0  0  0  0  0  0  0
   10.3430  -33.6290  -31.2040 C   0  0  0  0  0  0  0  0  0  0  0  0
  1 11  1  0
  1  4  2  0
  4  2  1  0
  5  4  1  0
  5  3  2  0
  6  1  1  0
  7 11  2  0
  8  9  1  0
  9  6  1  0
  9 10  2  0
 10  5  1  0
M  END
$$$$

     RDKit          3D

 12 13  0  0  0  0  0  0  0  0999 V2000
    7.5950  -34.3820  -34.0690 C   0  0  0  0  0  0  0  0  0  0  0  0
    9.8490  -33.4690  -31.4980 C   0  0  0  0  0  0  0  0  0  0  0  0
   10.1700  -31.9500  -29.7560 O   0  0  0  0  0  0  0  0  0  0  0  0
    9.3750  -32.4730  -30.8140 C   0  0  0  0  0  0  0  0  0  0  0  0
    7.4000  -32.4230  -32.1540 C   0  0  0  0  0  0  0  0  0  0  0  0
    6.0800  -31.8750  -32.4560 C   0  0  0  0  0  0  0  0  0  0  0  0
    7.5960  -31.2250  -30.1310 O   0  0  0  0  0  0  0  0  0  0  0  0
    8.1750  -32.0720  -31.0030 C   0  0  0  0  0  0  0  0  0  0  0  0
    9.1790  -34.0310  -32.5410 C   0  0  0  0  0  0  0  0  0  0  0  0
    9.5990  -35.0770  -33.3630 O   0  0  0  0  0  0  0  0  0  0  0  0
    8.5650  -35.2700  -34.2960 C   0  0  0  0  0  0  0  0  0  0  0  0
    7.9590  -33.5550  -32.9790 C   0  0  0  0  0  0  0  0  0  0  0  0
  1 12  1  0
  2  4  1  0
  4  3  1  0
  5  8  1  0
  6  5  1  0
  8  4  2  0
  8  7  1  0
  9  2  2  0
 10  9  1  0
 11  1  2  0
 11 10  1  0
 12  9  1  0
 12  5  2  0
M  END
$$$$

     RDKit          3D

 14 15  0  0  0  0  0  0  0  0999 V2000
    8.0440  -34.0570  -33.3440 O   0  0  0  0  0  0  0  0  0  0  0  0
   11.0500  -33.3830  -30.5200 C   0  0  0  0  0  0  0  0  0  0  0  0
    8.2850  -31.8230  -30.5540 C   0  0  0  0  0  0  0  0  0  0  0  0
   10.8350  -33.6150  -29.2710 O   0  0  0  0  0  0  0  0  0  0  0  0
   12.2660  -33.4170  -31.0600 N   0  0  0  0  0  0  0  0  0  0  0  0
    7.0560  -31.1730  -30.6550 C   0  0  0  0  0  0  0  0  0  0  0  0
    6.2070  -31.4850  -31.7420 C   0  0  0  0  0  0  0  0  0  0  0  0
    7.7410  -33.0910  -32.5480 C   0  0  0  0  0  0  0  0  0  0  0  0
   12.1000  -33.3910  -32.3340 N   0  0  0  0  0  0  0  0  0  0  0  0
    6.4960  -32.4210  -32.7110 C   0  0  0  0  0  0  0  0  0  0  0  0
   10.6940  -33.4210  -32.7210 C   0  0  0  0  0  0  0  0  0  0  0  0
    7.3550  -34.8930  -34.3260 C   0  0  0  0  0  0  0  0  0  0  0  0
    8.7070  -32.7140  -31.4570 C   0  0  0  0  0  0  0  0  0  0  0  0
   10.0030  -33.2020  -31.5270 C   0  0  0  0  0  0  0  0  0  0  0  0
  1  8  1  0
  2  4  2  0
  5  2  2  0
  6  3  1  0
  7  6  2  0
  8 13  1  0
  9  5  1  0
 10  8  2  0
 10  7  1  0
 11  9  1  0
 11 14  1  0
 12  1  1  0
 13  3  2  0
 14 13  1  0
 14  2  1  0
M  END
$$$$

     RDKit          3D

 20 20  0  0  0  0  0  0  0  0999 V2000
    7.0290  -32.8480  -32.9760 N   0  0  0  0  0  0  0  0  0  0  0  0
   10.3500  -30.7510  -28.4790 C   0  0  0  0  0  0  0  0  0  0  0  0
    9.7950  -33.1650  -32.0030 N   0  0  0  0  0  0  0  0  0  0  0  0
   10.5600  -36.8460  -34.3210 C   0  0  0  0  0  0  0  0  0  0  0  0
    4.1220  -31.7000  -31.1520 C   0  0  0  0  0  0  0  0  0  0  0  0
    8.7260  -34.3410  -33.6440 O   0  0  0  0  0  0  0  0  0  0  0  0
   10.1760  -31.8750  -29.4670 C   0  0  0  0  0  0  0  0  0  0  0  0
    8.8870  -32.5070  -31.3690 C   0  0  0  0  0  0  0  0  0  0  0  0
    2.9370  -31.7150  -32.1200 C   0  0  0  0  0  0  0  0  0  0  0  0
   11.9010  -33.6180  -33.7460 N   0  0  0  0  0  0  0  0  0  0  0  0
    9.1230  -31.7990  -30.2480 N   0  0  0  0  0  0  0  0  0  0  0  0
   11.4150  -35.6520  -34.3040 C   0  0  0  0  0  0  0  0  0  0  0  0
    9.7500  -33.9760  -33.1440 C   0  0  0  0  0  0  0  0  0  0  0  0
   10.9310  -34.4370  -33.6430 C   0  0  0  0  0  0  0  0  0  0  0  0
    6.6470  -31.7230  -31.1040 O   0  0  0  0  0  0  0  0  0  0  0  0
    5.7390  -32.6280  -33.0090 N   0  0  0  0  0  0  0  0  0  0  0  0
   12.5660  -35.6480  -35.0050 O   0  0  0  0  0  0  0  0  0  0  0  0
    7.5820  -32.3480  -31.8350 C   0  0  0  0  0  0  0  0  0  0  0  0
   11.5370  -31.1010  -27.5480 C   0  0  0  0  0  0  0  0  0  0  0  0
    5.4820  -31.8630  -31.8750 C   0  0  0  0  0  0  0  0  0  0  0  0
  1 18  2  0
  2 19  1  0
  3  8  2  3
  6 13  2  0
  7  2  1  0
  8 11  1  0
  9  5  1  0
 10 14  2  0
 11  7  2  3
 12  4  1  0
 12 14  1  0
 13  3  1  0
 14 13  1  0
 16  1  1  0
 16 20  2  0
 17 12  1  0
 18  8  1  0
 18 15  1  0
 20  5  1  0
 20 15  1  0
M  END
$$$$

     RDKit          3D

 15 18  0  0  0  0  0  0  0  0999 V2000
    5.2420  -31.7410  -31.9940 N   0  0  0  0  0  0  0  0  0  0  0  0
    9.1820  -33.4190  -32.1100 N   0  0  0  0  0  0  0  0  0  0  0  0
   12.5830  -35.0170  -31.6310 S   0  0  0  0  0  0  0  0  0  0  0  0
   11.9120  -33.3450  -29.7330 O   0  0  0  0  0  0  0  0  0  0  0  0
    5.5150  -32.6380  -33.0450 C   0  0  0  0  0  0  0  0  0  0  0  0
   10.8900  -33.4610  -30.4380 C   0  0  0  0  0  0  0  0  0  0  0  0
    7.8550  -32.9450  -32.3610 C   0  0  0  0  0  0  0  0  0  0  0  0
    6.7080  -33.2470  -33.2660 C   0  0  0  0  0  0  0  0  0  0  0  0
    9.5720  -32.8730  -30.8160 C   0  0  0  0  0  0  0  0  0  0  0  0
    8.6350  -31.8980  -30.4040 N   0  0  0  0  0  0  0  0  0  0  0  0
    6.3260  -31.3900  -31.2500 C   0  0  0  0  0  0  0  0  0  0  0  0
   10.1640  -34.4120  -32.5940 C   0  0  0  0  0  0  0  0  0  0  0  0
   10.9530  -34.6350  -31.3170 C   0  0  0  0  0  0  0  0  0  0  0  0
    7.5790  -32.0150  -31.2730 C   0  0  0  0  0  0  0  0  0  0  0  0
   13.1430  -33.8390  -30.6590 C   0  0  0  0  0  0  0  0  0  0  0  0
  1 11  2  0
  2  9  1  0
  3 13  1  0
  3 15  1  0
  5  1  1  0
  6  9  1  0
  6  4  1  0
  7  8  1  0
  7  2  1  0
  7 14  1  0
  8  5  2  0
  9 10  2  0
 12  2  1  0
 13 12  1  0
 13  6  1  0
 14 11  1  0
 14 10  2  0
 15  4  1  0
M  END
$$$$

     RDKit          3D

 11 11  0  0  0  0  0  0  0  0999 V2000
   12.3910  -32.1980  -29.7740 O   0  0  0  0  0  0  0  0  0  0  0  0
    7.7990  -31.9110  -31.2570 C   0  0  0  0  0  0  0  0  0  0  0  0
   10.5550  -34.5990  -33.1070 C   0  0  0  0  0  0  0  0  0  0  0  0
    9.9820  -33.1570  -31.2060 C   0  0  0  0  0  0  0  0  0  0  0  0
    8.8350  -32.8230  -31.8750 C   0  0  0  0  0  0  0  0  0  0  0  0
   10.2270  -32.6950  -29.9650 O   0  0  0  0  0  0  0  0  0  0  0  0
   11.4500  -33.0290  -29.2860 C   0  0  0  0  0  0  0  0  0  0  0  0
    9.3830  -34.2730  -33.7120 C   0  0  0  0  0  0  0  0  0  0  0  0
   10.8670  -34.0360  -31.8170 C   0  0  0  0  0  0  0  0  0  0  0  0
   11.3180  -33.6870  -28.3020 O   0  0  0  0  0  0  0  0  0  0  0  0
    8.4750  -33.4170  -33.1110 C   0  0  0  0  0  0  0  0  0  0  0  0
  1  7  2  0
  3  9  1  0
  4  6  1  0
  5  2  1  0
  5  4  1  0
  6  7  1  0
  7 10  1  0
  8 11  1  0
  8  3  2  0
  9  4  2  0
 11  5  2  0
M  END
$$$$

     RDKit          3D

 13 14  0  0  0  0  0  0  0  0999 V2000
   10.1250  -35.2430  -33.0470 O   0  0  0  0  0  0  0  0  0  0  0  0
    7.8890  -33.5930  -33.3190 O   0  0  0  0  0  0  0  0  0  0  0  0
   10.9170  -33.9780  -31.3720 C   0  0  0  0  0  0  0  0  0  0  0  0
    5.6390  -32.6870  -33.5220 C   0  0  0  0  0  0  0  0  0  0  0  0
    8.8330  -33.5260  -32.3880 N   0  0  0  0  0  0  0  0  0  0  0  0
   10.0060  -34.2660  -32.3380 C   0  0  0  0  0  0  0  0  0  0  0  0
    8.5080  -32.5870  -31.4180 C   0  0  0  0  0  0  0  0  0  0  0  0
    9.4640  -32.3910  -30.4740 C   0  0  0  0  0  0  0  0  0  0  0  0
   11.4670  -32.7270  -29.3420 N   0  0  0  0  0  0  0  0  0  0  0  0
    7.2530  -31.9880  -31.8150 C   0  0  0  0  0  0  0  0  0  0  0  0
   10.6110  -33.0310  -30.3720 C   0  0  0  0  0  0  0  0  0  0  0  0
    4.6390  -32.1170  -32.5960 O   0  0  0  0  0  0  0  0  0  0  0  0
    6.8660  -32.7400  -32.9680 C   0  0  0  0  0  0  0  0  0  0  0  0
  1  6  2  0
  2 13  1  0
  2  5  1  0
  3 11  1  0
  4 13  1  0
  4 12  1  0
  5  6  1  0
  5  7  1  0
  6  3  1  0
  7 10  1  0
  7  8  1  0
  8 11  2  0
 11  9  1  0
 13 10  2  0
M  END
$$$$

     RDKit          3D

 13 14  0  0  0  0  0  0  0  0999 V2000
    7.2330  -32.8920  -32.7870 C   0  0  0  0  0  0  0  0  0  0  0  0
    8.5570  -32.2790  -30.9330 C   0  0  0  0  0  0  0  0  0  0  0  0
    8.2450  -33.7920  -33.1760 C   0  0  0  0  0  0  0  0  0  0  0  0
    7.3970  -32.1250  -31.6850 C   0  0  0  0  0  0  0  0  0  0  0  0
   10.5110  -33.4950  -30.2090 C   0  0  0  0  0  0  0  0  0  0  0  0
    9.3730  -33.8390  -32.4590 C   0  0  0  0  0  0  0  0  0  0  0  0
    6.3360  -31.1560  -31.4110 C   0  0  0  0  0  0  0  0  0  0  0  0
    6.0190  -32.8000  -33.5040 O   0  0  0  0  0  0  0  0  0  0  0  0
    9.4370  -33.2050  -31.3220 C   0  0  0  0  0  0  0  0  0  0  0  0
   10.7260  -34.3900  -29.6030 O   0  0  0  0  0  0  0  0  0  0  0  0
   11.2080  -33.0800  -29.5760 C   0  0  0  0  0  0  0  0  0  0  0  0
   11.1640  -31.5860  -28.9560 N   0  0  0  0  0  0  0  0  0  0  0  0
    5.2740  -31.3400  -30.8800 O   0  0  0  0  0  0  0  0  0  0  0  0
  1  4  1  0
  3  1  2  0
  3  6  1  0
  4  7  1  0
  4  2  2  0
  5  9  1  0
  5 10  1  0
  5 11  1  0
  6  9  2  0
  7 13  2  0
  8  1  1  0
  9  2  1  0
 10 11  1  0
 11 12  1  0
M  END
$$$$

     RDKit          3D

  1  0  0  0  0  0  0  0  0  0999 V2000
   13.7500  -37.3830  -36.8440 O   0  0  0  0  0  0  0  0  0  0  0  0
M  END
$$$$

     RDKit          3D

 12 12  0  0  0  0  0  0  0  0999 V2000
    9.0320  -34.6480  -32.7460 C   0  0  0  0  0  0  0  0  0  0  0  0
   10.5730  -33.9120  -30.9840 C   0  0  0  0  0  0  0  0  0  0  0  0
   12.3600  -33.1380  -29.2120 C   0  0  0  0  0  0  0  0  0  0  0  0
    7.4060  -33.6540  -33.7870 N   0  0  0  0  0  0  0  0  0  0  0  0
   10.1640  -34.8630  -31.9530 C   0  0  0  0  0  0  0  0  0  0  0  0
    8.3970  -33.5480  -32.7540 C   0  0  0  0  0  0  0  0  0  0  0  0
   13.1410  -34.0200  -29.5930 O   0  0  0  0  0  0  0  0  0  0  0  0
    8.5990  -32.6560  -31.8420 C   0  0  0  0  0  0  0  0  0  0  0  0
   10.9770  -34.0240  -29.4310 C   0  0  0  0  0  0  0  0  0  0  0  0
   10.9780  -35.3350  -29.3850 O   0  0  0  0  0  0  0  0  0  0  0  0
   12.1180  -32.1830  -28.3490 O   0  0  0  0  0  0  0  0  0  0  0  0
    9.7560  -32.8870  -31.1550 C   0  0  0  0  0  0  0  0  0  0  0  0
  1  5  1  0
  2  9  1  0
  3 11  1  0
  4  6  1  0
  5  2  1  0
  6  1  2  0
  6  8  1  0
  7  3  2  0
  8 12  1  0
  9 10  1  0
  9  3  1  0
 12  2  1  0
M  END
$$$$
