
     RDKit          3D

  7  7  0  0  0  0  0  0  0  0999 V2000
   -9.7130   -4.3500   27.8680 O   0  0  0  0  0  0  0  0  0  0  0  0
  -12.0250   -4.0860   28.6630 C   0  0  0  0  0  0  0  0  0  0  0  0
  -11.5910   -4.3680   29.9500 O   0  0  0  0  0  0  0  0  0  0  0  0
  -10.8310   -3.3240   28.0430 C   0  0  0  0  0  0  0  0  0  0  0  0
  -13.2670   -3.0650   28.5870 C   0  0  0  0  0  0  0  0  0  0  0  0
  -13.3580   -2.6510   27.2810 O   0  0  0  0  0  0  0  0  0  0  0  0
  -11.8360   -2.4480   26.8340 S   0  0  0  0  0  0  0  0  0  0  0  0
  2  3  1  0
  4  1  1  0
  4  2  1  0
  5  2  1  0
  6  5  1  0
  7  6  1  0
  7  4  1  0
M  END
$$$$

     RDKit          3D

 18 17  0  0  0  0  0  0  0  0999 V2000
  -15.8720   -4.5690   26.4810 C   0  0  0  0  0  0  0  0  0  0  0  0
  -11.2740   -4.3290   28.3280 C   0  0  0  0  0  0  0  0  0  0  0  0
  -12.5180   -3.5570   28.0560 C   0  0  0  0  0  0  0  0  0  0  0  0
   -6.7360   -5.7780   26.1450 C   0  0  0  0  0  0  0  0  0  0  0  0
  -21.4420   -7.6500   23.9640 C   0  0  0  0  0  0  0  0  0  0  0  0
  -14.7990   -3.5090   27.0350 C   0  0  0  0  0  0  0  0  0  0  0  0
   -8.4250   -5.0300   27.8740 N   0  0  0  0  0  0  0  0  0  0  0  0
  -19.7550   -6.0670   24.4920 C   0  0  0  0  0  0  0  0  0  0  0  0
  -13.3100   -4.0870   26.9690 C   0  0  0  0  0  0  0  0  0  0  0  0
   -7.2940   -4.0630   26.9560 S   0  0  0  0  0  0  0  0  0  0  0  0
   -5.9500   -4.0710   28.0470 O   0  0  0  0  0  0  0  0  0  0  0  0
   -5.3290   -6.3510   26.0910 O   0  0  0  0  0  0  0  0  0  0  0  0
  -20.0730   -7.0610   23.8060 C   0  0  0  0  0  0  0  0  0  0  0  0
  -18.1350   -5.9190   25.4270 C   0  0  0  0  0  0  0  0  0  0  0  0
   -8.9330   -3.9560   28.9290 C   0  0  0  0  0  0  0  0  0  0  0  0
  -17.5980   -4.1530   27.3620 S   0  0  0  0  0  0  0  0  0  0  0  0
  -18.6280   -5.0130   26.2170 C   0  0  0  0  0  0  0  0  0  0  0  0
  -10.1780   -3.2640   28.3270 C   0  0  0  0  0  0  0  0  0  0  0  0
  1  6  1  0
  1 16  1  0
  3  2  1  0
  4 10  1  0
  7 15  1  0
  8 14  1  0
  9  6  1  0
  9  3  1  0
 10  7  1  0
 10 11  2  0
 12  4  1  0
 13  5  1  0
 13  8  1  0
 14 17  1  0
 17 16  1  0
 18  2  1  0
 18 15  1  0
M  END
$$$$

     RDKit          3D

 15 17  0  0  0  0  0  0  0  0999 V2000
  -13.2000   -6.0540   25.5050 C   0  0  0  0  0  0  0  0  0  0  0  0
  -15.0060   -4.6300   25.7400 C   0  0  0  0  0  0  0  0  0  0  0  0
  -15.3110   -7.9600   21.0850 O   0  0  0  0  0  0  0  0  0  0  0  0
  -14.9700   -8.7590   22.0980 C   0  0  0  0  0  0  0  0  0  0  0  0
  -17.2800   -7.9000   23.8100 S   0  0  0  0  0  0  0  0  0  0  0  0
  -12.9790   -3.8110   27.3170 C   0  0  0  0  0  0  0  0  0  0  0  0
  -13.9560   -9.5310   21.8040 F   0  0  0  0  0  0  0  0  0  0  0  0
  -11.9710   -5.5210   26.1070 C   0  0  0  0  0  0  0  0  0  0  0  0
  -14.0580   -4.3580   26.5790 C   0  0  0  0  0  0  0  0  0  0  0  0
  -12.1720   -4.9000   27.5070 C   0  0  0  0  0  0  0  0  0  0  0  0
  -14.4410   -7.7780   24.3110 C   0  0  0  0  0  0  0  0  0  0  0  0
  -15.2470   -5.6200   25.0160 N   0  0  0  0  0  0  0  0  0  0  0  0
  -14.2630   -6.3050   24.8700 C   0  0  0  0  0  0  0  0  0  0  0  0
  -15.3860   -8.2370   23.3060 C   0  0  0  0  0  0  0  0  0  0  0  0
  -16.2520   -6.8430   22.2380 S   0  0  0  0  0  0  0  0  0  0  0  0
  1  8  1  0
  2  9  1  0
  3  4  1  0
  4  7  1  0
  4 14  1  0
  6 10  1  0
  8 10  1  0
  9  6  1  0
 11 13  1  0
 12  2  1  0
 13 12  2  3
 13  1  1  0
 14  5  1  0
 14 11  1  0
 15  3  1  0
 15 14  1  0
 15  5  1  0
M  END
$$$$

     RDKit          3D

  7  6  0  0  0  0  0  0  0  0999 V2000
  -13.0690   -0.9700   29.6110 O   0  0  0  0  0  0  0  0  0  0  0  0
  -12.7910   -2.6750   26.6320 O   0  0  0  0  0  0  0  0  0  0  0  0
  -11.9180   -3.0830   27.5100 C   0  0  0  0  0  0  0  0  0  0  0  0
  -12.3010   -2.8840   28.9340 C   0  0  0  0  0  0  0  0  0  0  0  0
  -14.9570   -2.3730   28.5790 O   0  0  0  0  0  0  0  0  0  0  0  0
  -13.4670   -2.1010   29.0840 N   0  0  0  0  0  0  0  0  0  0  0  0
  -10.8870   -3.5520   27.2600 O   0  0  0  0  0  0  0  0  0  0  0  0
  2  3  2  0
  3  4  1  0
  4  6  1  0
  5  6  2  0
  6  1  2  0
  7  3  1  0
M  END
$$$$

     RDKit          3D

  8  8  0  0  0  0  0  0  0  0999 V2000
  -12.9760   -3.1410   26.6620 C   0  0  0  0  0  0  0  0  0  0  0  0
  -13.8530   -2.8870   27.7200 C   0  0  0  0  0  0  0  0  0  0  0  0
   -9.9270   -4.0840   27.8080 O   0  0  0  0  0  0  0  0  0  0  0  0
  -12.4460   -3.1670   27.8810 N   0  0  0  0  0  0  0  0  0  0  0  0
  -11.5490   -2.0360   28.3350 C   0  0  0  0  0  0  0  0  0  0  0  0
   -9.0340   -2.4510   27.0870 O   0  0  0  0  0  0  0  0  0  0  0  0
  -10.1240   -2.7150   27.6360 C   0  0  0  0  0  0  0  0  0  0  0  0
  -12.0250   -1.1800   28.6190 O   0  0  0  0  0  0  0  0  0  0  0  0
  1  2  1  0
  1  4  1  0
  2  4  1  0
  4  5  1  0
  5  8  2  0
  6  7  2  0
  7  3  1  0
  7  5  1  0
M  END
$$$$

     RDKit          3D

  5  4  0  0  0  0  0  0  0  0999 V2000
  -12.7200  -10.1250   20.0640 C   0  0  0  0  0  0  0  0  0  0  0  0
  -13.9610  -10.2480   20.1130 O   0  0  0  0  0  0  0  0  0  0  0  0
  -11.8900   -9.9410   21.1950 C   0  0  0  0  0  0  0  0  0  0  0  0
  -12.2090   -9.0740   22.1560 C   0  0  0  0  0  0  0  0  0  0  0  0
  -12.1390  -11.1010   19.1920 O   0  0  0  0  0  0  0  0  0  0  0  0
  1  2  1  0
  1  3  1  0
  3  4  2  0
  5  1  2  0
M  END
$$$$

     RDKit          3D

 10 10  0  0  0  0  0  0  0  0999 V2000
   -5.2600   -8.2850   25.2040 C   0  0  0  0  0  0  0  0  0  0  0  0
  -10.3580   -8.8000   22.4470 C   0  0  0  0  0  0  0  0  0  0  0  0
   -7.2270   -7.1650   25.3170 O   0  0  0  0  0  0  0  0  0  0  0  0
   -7.8320   -8.2460   22.3250 C   0  0  0  0  0  0  0  0  0  0  0  0
   -6.6020   -8.2510   23.0430 C   0  0  0  0  0  0  0  0  0  0  0  0
   -5.1810   -7.4210   26.3230 N   0  0  0  0  0  0  0  0  0  0  0  0
   -6.2200   -6.4020   25.9700 C   0  0  0  0  0  0  0  0  0  0  0  0
   -9.0940   -8.1320   23.2080 C   0  0  0  0  0  0  0  0  0  0  0  0
  -10.3670   -9.7610   21.1220 C   0  0  0  0  0  0  0  0  0  0  0  0
   -6.6170   -8.3000   24.5470 C   0  0  0  0  0  0  0  0  0  0  0  0
  1  6  1  0
  2  8  1  0
  3  7  1  0
  4  5  1  0
  4  8  1  0
  7  6  1  0
  9  2  1  0
 10  5  1  0
 10  1  1  0
 10  3  1  0
M  END
$$$$

     RDKit          3D

  9  9  0  0  0  0  0  0  0  0999 V2000
  -11.2530   -3.7940   28.0200 C   0  0  0  0  0  0  0  0  0  0  0  0
  -12.2860   -3.4490   28.8900 C   0  0  0  0  0  0  0  0  0  0  0  0
   -9.1690   -6.1240   30.1240 C   0  0  0  0  0  0  0  0  0  0  0  0
  -10.2690   -4.6010   28.4220 C   0  0  0  0  0  0  0  0  0  0  0  0
  -10.3030   -5.1320   29.6700 C   0  0  0  0  0  0  0  0  0  0  0  0
  -12.1930   -3.7380   30.1660 C   0  0  0  0  0  0  0  0  0  0  0  0
  -11.1480   -4.7650   30.4720 C   0  0  0  0  0  0  0  0  0  0  0  0
  -13.7430   -2.5420   28.4430 Cl  0  0  0  0  0  0  0  0  0  0  0  0
   -8.5050   -6.5900   29.0580 O   0  0  0  0  0  0  0  0  0  0  0  0
  1  4  2  0
  1  2  1  0
  2  6  2  0
  4  5  1  0
  5  3  1  0
  5  7  2  0
  6  7  1  0
  8  2  1  0
  9  3  1  0
M  END
$$$$

     RDKit          3D

  5  4  0  0  0  0  0  0  0  0999 V2000
   -6.1540   -5.3440   24.4200 C   0  0  0  0  0  0  0  0  0  0  0  0
   -7.2910   -5.1470   26.6960 C   0  0  0  0  0  0  0  0  0  0  0  0
   -8.4030   -4.0520   26.9050 O   0  0  0  0  0  0  0  0  0  0  0  0
   -5.2660   -6.3620   24.6340 O   0  0  0  0  0  0  0  0  0  0  0  0
   -6.4510   -4.6240   25.6340 C   0  0  0  0  0  0  0  0  0  0  0  0
  1  4  1  0
  1  5  1  0
  2  3  1  0
  5  2  1  0
M  END
$$$$

     RDKit          3D

  8  8  0  0  0  0  0  0  0  0999 V2000
  -10.9680   -3.7730   29.5560 C   0  0  0  0  0  0  0  0  0  0  0  0
   -8.5730   -6.0580   28.6000 O   0  0  0  0  0  0  0  0  0  0  0  0
  -10.6540   -2.8090   27.4050 C   0  0  0  0  0  0  0  0  0  0  0  0
   -8.9510   -5.0440   28.3750 C   0  0  0  0  0  0  0  0  0  0  0  0
   -8.9450   -2.8770   27.5110 O   0  0  0  0  0  0  0  0  0  0  0  0
  -10.1010   -4.4550   28.8760 O   0  0  0  0  0  0  0  0  0  0  0  0
   -8.2180   -4.0410   27.5270 C   0  0  0  0  0  0  0  0  0  0  0  0
  -11.8030   -3.1480   28.3950 C   0  0  0  0  0  0  0  0  0  0  0  0
  3  5  1  0
  3  8  1  0
  4  2  2  0
  4  6  1  0
  5  7  1  0
  6  1  1  0
  7  4  1  0
  8  1  1  0
M  END
$$$$

     RDKit          3D

  8  9  0  0  0  0  0  0  0  0999 V2000
  -14.5740   -3.1110   28.4120 N   0  0  0  0  0  0  0  0  0  0  0  0
  -12.5350   -3.0650   27.1080 C   0  0  0  0  0  0  0  0  0  0  0  0
  -15.1450   -1.9000   28.2350 N   0  0  0  0  0  0  0  0  0  0  0  0
  -13.8230   -2.7940   27.7400 C   0  0  0  0  0  0  0  0  0  0  0  0
  -11.6160   -2.4930   26.9300 O   0  0  0  0  0  0  0  0  0  0  0  0
  -14.9440   -2.9030   26.6700 C   0  0  0  0  0  0  0  0  0  0  0  0
  -12.6150   -4.3680   26.9060 O   0  0  0  0  0  0  0  0  0  0  0  0
  -15.9390   -2.5340   27.4810 C   0  0  0  0  0  0  0  0  0  0  0  0
  1  3  1  0
  4  2  1  0
  4  1  1  0
  5  2  1  0
  6  4  1  0
  7  2  2  0
  8  6  1  0
  8  3  1  0
  8  1  1  0
M  END
$$$$

     RDKit          3D

  7  6  0  0  0  0  0  0  0  0999 V2000
  -13.9140   -3.8830   25.7270 C   0  0  0  0  0  0  0  0  0  0  0  0
  -11.2060   -3.4470   26.3700 C   0  0  0  0  0  0  0  0  0  0  0  0
  -12.8300   -4.8560   27.8470 C   0  0  0  0  0  0  0  0  0  0  0  0
  -12.5700   -3.1290   25.7960 C   0  0  0  0  0  0  0  0  0  0  0  0
  -10.4920   -4.4080   25.5190 C   0  0  0  0  0  0  0  0  0  0  0  0
  -13.7140   -5.3880   25.8240 C   0  0  0  0  0  0  0  0  0  0  0  0
  -12.5670   -5.7000   26.6360 C   0  0  0  0  0  0  0  0  0  0  0  0
  1  4  1  0
  1  6  1  0
  4  2  1  0
  5  2  1  0
  6  7  1  0
  7  3  1  0
M  END
$$$$

     RDKit          3D

  6  5  0  0  0  0  0  0  0  0999 V2000
   -5.6410   -8.9180   24.9280 C   0  0  0  0  0  0  0  0  0  0  0  0
   -6.9720   -6.8230   25.3130 C   0  0  0  0  0  0  0  0  0  0  0  0
   -6.6240   -8.1670   24.6950 C   0  0  0  0  0  0  0  0  0  0  0  0
   -6.0610   -7.7510   23.7340 O   0  0  0  0  0  0  0  0  0  0  0  0
   -7.0880   -5.7490   24.8630 O   0  0  0  0  0  0  0  0  0  0  0  0
   -7.0750   -7.6360   26.1240 O   0  0  0  0  0  0  0  0  0  0  0  0
  2  6  1  0
  3  1  1  0
  3  2  1  0
  4  3  1  0
  5  2  2  0
M  END
$$$$

     RDKit          3D

  7  6  0  0  0  0  0  0  0  0999 V2000
  -11.4350   -3.9550   27.9220 N   0  0  0  0  0  0  0  0  0  0  0  0
  -11.2260   -3.1600   28.6110 C   0  0  0  0  0  0  0  0  0  0  0  0
   -9.1400   -3.4980   27.1660 O   0  0  0  0  0  0  0  0  0  0  0  0
   -9.5580   -2.1640   28.6680 O   0  0  0  0  0  0  0  0  0  0  0  0
   -9.4440   -3.1460   27.7830 C   0  0  0  0  0  0  0  0  0  0  0  0
  -11.4780   -5.4300   27.8330 O   0  0  0  0  0  0  0  0  0  0  0  0
  -12.2560   -2.1710   28.7960 O   0  0  0  0  0  0  0  0  0  0  0  0
  1  2  1  0
  2  7  1  0
  3  5  2  0
  5  2  1  0
  5  4  1  0
  6  1  1  0
M  END
$$$$

     RDKit          3D

 10  9  0  0  0  0  0  0  0  0999 V2000
   -9.7810   -5.7290   28.8900 C   0  0  0  0  0  0  0  0  0  0  0  0
  -11.0570   -3.3280   27.8350 P   0  0  0  0  0  0  0  0  0  0  0  0
   -9.7120   -3.2060   27.2390 O   0  0  0  0  0  0  0  0  0  0  0  0
   -8.1700   -5.5850   27.1750 O   0  0  0  0  0  0  0  0  0  0  0  0
  -11.8490   -2.1450   28.1160 O   0  0  0  0  0  0  0  0  0  0  0  0
   -6.5410   -7.0180   27.0110 O   0  0  0  0  0  0  0  0  0  0  0  0
  -12.0580   -4.0850   27.0740 O   0  0  0  0  0  0  0  0  0  0  0  0
  -10.7820   -4.2530   29.4690 S   0  0  0  0  0  0  0  0  0  0  0  0
   -7.2820   -6.3030   26.4410 C   0  0  0  0  0  0  0  0  0  0  0  0
   -8.3360   -6.0250   28.4840 C   0  0  0  0  0  0  0  0  0  0  0  0
  1  8  1  0
  2  5  1  0
  2  8  1  0
  3  2  1  0
  4 10  1  0
  7  2  2  0
  9  6  2  0
  9  4  1  0
 10  1  1  0
M  END
$$$$

     RDKit          3D

  7  7  0  0  0  0  0  0  0  0999 V2000
   -9.2260   -5.6040   28.7220 O   0  0  0  0  0  0  0  0  0  0  0  0
   -8.9700   -2.0580   27.6400 O   0  0  0  0  0  0  0  0  0  0  0  0
   -8.4120   -4.6880   28.1380 C   0  0  0  0  0  0  0  0  0  0  0  0
  -11.7080   -3.2730   28.0020 O   0  0  0  0  0  0  0  0  0  0  0  0
   -9.2400   -3.5480   27.9710 C   0  0  0  0  0  0  0  0  0  0  0  0
  -10.5590   -3.9590   28.2370 C   0  0  0  0  0  0  0  0  0  0  0  0
  -10.5710   -5.2150   28.7320 N   0  0  0  0  0  0  0  0  0  0  0  0
  1  7  1  0
  2  5  1  0
  3  1  1  0
  4  6  2  0
  5  3  2  0
  5  6  1  0
  6  7  2  0
M  END
$$$$

     RDKit          3D

 10 10  0  0  0  0  0  0  0  0999 V2000
  -12.6350   -5.6070   26.5570 N   0  0  0  0  0  0  0  0  0  0  0  0
  -11.3270   -3.8040   26.1160 N   0  0  0  0  0  0  0  0  0  0  0  0
  -15.8470   -4.6170   26.2540 C   0  0  0  0  0  0  0  0  0  0  0  0
  -14.0830   -3.3610   27.3090 S   0  0  0  0  0  0  0  0  0  0  0  0
  -11.0360   -6.0900   24.9320 C   0  0  0  0  0  0  0  0  0  0  0  0
  -10.2650   -5.6930   27.1820 C   0  0  0  0  0  0  0  0  0  0  0  0
  -15.0390   -5.4470   26.3020 N   0  0  0  0  0  0  0  0  0  0  0  0
  -13.8700   -4.9440   26.6570 C   0  0  0  0  0  0  0  0  0  0  0  0
  -11.3640   -5.2730   26.1170 C   0  0  0  0  0  0  0  0  0  0  0  0
  -15.6360   -3.6940   26.8250 C   0  0  0  0  0  0  0  0  0  0  0  0
  1  8  1  0
  2  9  1  0
  3  7  1  0
  3 10  1  0
  5  9  1  0
  7  8  2  0
  8  4  1  0
  9  1  1  0
  9  6  1  0
 10  4  1  0
M  END
$$$$

     RDKit          3D

  9  9  0  0  0  0  0  0  0  0999 V2000
  -12.1660   -9.3840   23.7610 S   0  0  0  0  0  0  0  0  0  0  0  0
  -11.4020   -5.8870   25.8690 C   0  0  0  0  0  0  0  0  0  0  0  0
   -9.9660   -6.1480   26.5400 C   0  0  0  0  0  0  0  0  0  0  0  0
  -12.1420   -6.6730   24.7040 C   0  0  0  0  0  0  0  0  0  0  0  0
  -13.7010   -8.7130   23.9390 C   0  0  0  0  0  0  0  0  0  0  0  0
  -11.4900   -7.8610   23.8660 C   0  0  0  0  0  0  0  0  0  0  0  0
  -14.6000   -9.0210   23.4680 O   0  0  0  0  0  0  0  0  0  0  0  0
  -10.0090   -7.9360   24.4270 C   0  0  0  0  0  0  0  0  0  0  0  0
  -13.7130   -7.5160   25.2000 S   0  0  0  0  0  0  0  0  0  0  0  0
  1  6  1  0
  1  5  1  0
  2  3  1  0
  4  9  1  0
  4  2  1  0
  5  9  1  0
  6  8  1  0
  6  4  1  0
  7  5  2  0
M  END
$$$$

     RDKit          3D

 20 20  0  0  0  0  0  0  0  0999 V2000
  -10.0300   -5.4450   27.0540 C   0  0  0  0  0  0  0  0  0  0  0  0
   -8.5630   -5.7750   27.3360 C   0  0  0  0  0  0  0  0  0  0  0  0
  -12.6610   -8.3050   24.1210 C   0  0  0  0  0  0  0  0  0  0  0  0
  -13.9220  -10.0300   23.4650 C   0  0  0  0  0  0  0  0  0  0  0  0
  -10.7910   -6.3970   26.7750 C   0  0  0  0  0  0  0  0  0  0  0  0
  -13.8440   -8.1120   24.4450 C   0  0  0  0  0  0  0  0  0  0  0  0
  -10.8390   -7.3350   23.8340 Cl  0  0  0  0  0  0  0  0  0  0  0  0
  -11.7870   -3.5660   27.2530 C   0  0  0  0  0  0  0  0  0  0  0  0
  -14.3430  -10.0860   23.5380 C   0  0  0  0  0  0  0  0  0  0  0  0
  -11.8180   -5.8360   26.2270 C   0  0  0  0  0  0  0  0  0  0  0  0
  -12.7820   -9.2020   23.7990 C   0  0  0  0  0  0  0  0  0  0  0  0
  -10.4630   -4.2910   28.3680 S   0  0  0  0  0  0  0  0  0  0  0  0
  -12.5950   -4.7270   26.8110 C   0  0  0  0  0  0  0  0  0  0  0  0
  -14.0470   -6.7910   25.3450 C   0  0  0  0  0  0  0  0  0  0  0  0
   -8.0380   -5.5850   28.7600 C   0  0  0  0  0  0  0  0  0  0  0  0
  -12.9080   -6.4770   25.3650 C   0  0  0  0  0  0  0  0  0  0  0  0
  -14.3600   -8.2310   25.1200 O   0  0  0  0  0  0  0  0  0  0  0  0
  -14.9650   -7.5970   25.9760 C   0  0  0  0  0  0  0  0  0  0  0  0
  -13.5180   -4.3210   25.9480 O   0  0  0  0  0  0  0  0  0  0  0  0
  -14.5570  -10.8860   23.4210 C   0  0  0  0  0  0  0  0  0  0  0  0
  1  2  1  0
  1 12  1  0
  2 15  1  0
  3  7  1  0
  3  6  1  0
  4  9  1  0
  4 11  1  0
  5  1  1  0
  6 17  1  0
  8 12  1  0
 10 16  1  0
 10  5  1  0
 10 13  1  0
 11  3  1  0
 13 19  1  0
 13  8  1  0
 14 16  1  0
 14 18  1  0
 17 18  1  0
 20  9  1  0
M  END
$$$$

     RDKit          3D

  7  7  0  0  0  0  0  0  0  0999 V2000
  -12.9340   -9.2670   23.8950 C   0  0  0  0  0  0  0  0  0  0  0  0
  -11.0730   -8.2160   22.9000 C   0  0  0  0  0  0  0  0  0  0  0  0
  -11.4850   -9.0330   24.0530 N   0  0  0  0  0  0  0  0  0  0  0  0
  -10.9990  -10.5250   24.0260 C   0  0  0  0  0  0  0  0  0  0  0  0
  -13.3330   -9.6430   22.5880 C   0  0  0  0  0  0  0  0  0  0  0  0
  -11.5570  -11.6240   22.6750 S   0  0  0  0  0  0  0  0  0  0  0  0
  -12.3460  -10.3950   21.6370 C   0  0  0  0  0  0  0  0  0  0  0  0
  1  3  1  0
  2  3  1  0
  4  3  1  0
  5  1  1  0
  6  4  1  0
  7  5  1  0
  7  6  1  0
M  END
$$$$
