
     RDKit          3D

 12 14  0  0  0  0  0  0  0  0999 V2000
  -16.4410  -24.2520   -5.2640 C   0  0  0  0  0  0  0  0  0  0  0  0
  -17.8050  -23.9350   -6.1630 C   0  0  0  0  0  0  0  0  0  0  0  0
  -16.7080  -21.5230   -7.5110 C   0  0  0  0  0  0  0  0  0  0  0  0
  -17.8670  -21.5170   -7.4890 C   0  0  0  0  0  0  0  0  0  0  0  0
  -19.0410  -22.0650   -6.9000 C   0  0  0  0  0  0  0  0  0  0  0  0
  -19.7200  -22.4190   -8.2960 C   0  0  0  0  0  0  0  0  0  0  0  0
  -15.8110  -23.1080   -5.7720 C   0  0  0  0  0  0  0  0  0  0  0  0
  -15.9780  -21.9360   -6.2440 C   0  0  0  0  0  0  0  0  0  0  0  0
  -18.5050  -22.8390   -6.2170 C   0  0  0  0  0  0  0  0  0  0  0  0
  -20.3870  -23.7350   -8.2900 C   0  0  0  0  0  0  0  0  0  0  0  0
  -21.1560  -22.6660   -7.9560 C   0  0  0  0  0  0  0  0  0  0  0  0
  -19.9430  -24.0720   -6.6610 C   0  0  0  0  0  0  0  0  0  0  0  0
  2  1  1  0
  3  4  1  0
  3  8  1  0
  5  4  1  0
  5  9  1  0
  6 10  1  0
  6 11  1  0
  6  5  1  0
  7  1  1  0
  8  7  1  0
  9 12  1  0
  9  2  1  0
 10 11  1  0
 10 12  1  0
M  END
$$$$

     RDKit          3D

  7  6  0  0  0  0  0  0  0  0999 V2000
  -15.5230  -23.8010   -5.1170 O   0  0  0  0  0  0  0  0  0  0  0  0
  -16.7770  -22.6180   -6.9180 C   0  0  0  0  0  0  0  0  0  0  0  0
  -16.5180  -22.6170   -5.3920 C   0  0  0  0  0  0  0  0  0  0  0  0
  -15.1290  -23.3110   -7.6490 S   0  0  0  0  0  0  0  0  0  0  0  0
  -18.7740  -23.8470   -6.5810 O   0  0  0  0  0  0  0  0  0  0  0  0
  -18.4240  -22.8000   -6.8010 C   0  0  0  0  0  0  0  0  0  0  0  0
  -15.8400  -25.0900   -8.0950 S   0  0  0  0  0  0  0  0  0  0  0  0
  2  6  1  0
  2  3  1  0
  3  1  1  0
  4  2  1  0
  6  5  2  0
  7  4  1  0
M  END
$$$$

     RDKit          3D

 14 15  0  0  0  0  0  0  0  0999 V2000
  -17.1190  -22.0440   -6.0760 C   0  0  0  0  0  0  0  0  0  0  0  0
  -18.0030  -21.5090   -5.0980 C   0  0  0  0  0  0  0  0  0  0  0  0
  -17.1210  -24.1250   -7.6080 C   0  0  0  0  0  0  0  0  0  0  0  0
  -17.6630  -22.9870   -6.9880 C   0  0  0  0  0  0  0  0  0  0  0  0
  -15.9120  -22.5330   -5.5600 C   0  0  0  0  0  0  0  0  0  0  0  0
  -15.7600  -24.4630   -7.4430 O   0  0  0  0  0  0  0  0  0  0  0  0
  -18.9310  -22.7380   -7.3050 C   0  0  0  0  0  0  0  0  0  0  0  0
  -17.8590  -25.0130   -8.4610 C   0  0  0  0  0  0  0  0  0  0  0  0
  -15.2640  -25.3250   -8.3460 C   0  0  0  0  0  0  0  0  0  0  0  0
  -19.1810  -24.7090   -8.8200 C   0  0  0  0  0  0  0  0  0  0  0  0
  -19.6910  -23.6070   -8.2240 C   0  0  0  0  0  0  0  0  0  0  0  0
  -17.0940  -21.5310   -3.8690 N   0  0  0  0  0  0  0  0  0  0  0  0
  -20.9030  -23.3590   -8.5820 O   0  0  0  0  0  0  0  0  0  0  0  0
  -15.6910  -21.7230   -4.2790 N   0  0  0  0  0  0  0  0  0  0  0  0
  1  5  1  0
  1  2  1  0
  2 12  1  0
  3  6  1  0
  3  4  1  0
  4  1  1  0
  5 14  1  0
  7  4  2  0
  8  3  2  0
  9  6  1  0
 10  8  1  0
 10 11  2  0
 11  7  1  0
 13 11  1  0
 14 12  1  0
M  END
$$$$

     RDKit          3D

 27 31  0  0  0  0  0  0  0  0999 V2000
  -21.8780  -19.7270   -3.9150 C   0  0  0  0  0  0  0  0  0  0  0  0
  -18.9390  -22.5840   -7.0230 C   0  0  0  0  0  0  0  0  0  0  0  0
  -10.7290  -26.9940   -6.9870 C   0  0  0  0  0  0  0  0  0  0  0  0
  -16.3390  -25.1860   -8.4140 C   0  0  0  0  0  0  0  0  0  0  0  0
  -17.8020  -23.3380   -7.3500 C   0  0  0  0  0  0  0  0  0  0  0  0
  -12.7290  -26.0180   -7.9900 C   0  0  0  0  0  0  0  0  0  0  0  0
  -17.1850  -21.9200   -5.6410 N   0  0  0  0  0  0  0  0  0  0  0  0
  -19.1530  -20.4980   -5.3490 C   0  0  0  0  0  0  0  0  0  0  0  0
  -14.0330  -26.0220   -8.1620 N   0  0  0  0  0  0  0  0  0  0  0  0
  -19.7770  -24.4700   -9.3250 C   0  0  0  0  0  0  0  0  0  0  0  0
  -19.6280  -20.6400   -3.8110 C   0  0  0  0  0  0  0  0  0  0  0  0
  -17.8430  -26.1180   -9.9120 C   0  0  0  0  0  0  0  0  0  0  0  0
  -12.0710  -24.8480   -7.9310 O   0  0  0  0  0  0  0  0  0  0  0  0
  -20.6980  -19.9850   -3.0160 O   0  0  0  0  0  0  0  0  0  0  0  0
  -16.7810  -22.9280   -6.4550 C   0  0  0  0  0  0  0  0  0  0  0  0
  -14.9490  -25.0120   -7.8550 C   0  0  0  0  0  0  0  0  0  0  0  0
  -12.0350  -27.1890   -7.8470 N   0  0  0  0  0  0  0  0  0  0  0  0
  -20.0960  -22.5420   -7.6730 N   0  0  0  0  0  0  0  0  0  0  0  0
  -20.2720  -19.8030   -6.0540 C   0  0  0  0  0  0  0  0  0  0  0  0
  -14.5230  -23.9440   -7.1410 C   0  0  0  0  0  0  0  0  0  0  0  0
  -15.3700  -23.2040   -6.3970 C   0  0  0  0  0  0  0  0  0  0  0  0
  -21.2700  -19.1290   -5.1720 C   0  0  0  0  0  0  0  0  0  0  0  0
  -16.5440  -26.1660   -9.4580 C   0  0  0  0  0  0  0  0  0  0  0  0
  -18.5020  -25.0760   -9.1650 C   0  0  0  0  0  0  0  0  0  0  0  0
  -17.5190  -24.4600   -8.2730 C   0  0  0  0  0  0  0  0  0  0  0  0
  -20.3860  -23.4510   -8.6680 C   0  0  0  0  0  0  0  0  0  0  0  0
  -18.5180  -21.7110   -5.9760 N   0  0  0  0  0  0  0  0  0  0  0  0
  1 14  1  0
  2 27  1  0
  4 25  1  0
  4 16  1  0
  5  2  1  0
  5 15  1  0
  6 13  2  0
  6 17  1  0
  8 19  1  0
  8 11  1  0
  9  6  1  0
  9 16  2  3
 10 24  1  0
 10 26  2  0
 11 14  1  0
 12 23  1  0
 12 24  2  0
 15 21  1  0
 15  7  2  0
 16 20  1  0
 17  3  1  0
 18  2  2  0
 19 22  1  0
 20 21  1  0
 22  1  1  0
 23  4  2  0
 24 25  1  0
 25  5  2  0
 26 18  1  0
 27  7  1  0
 27  8  1  0
M  END
$$$$

     RDKit          3D

 12 13  0  0  0  0  0  0  0  0999 V2000
  -16.9970  -25.7320   -8.8540 C   0  0  0  0  0  0  0  0  0  0  0  0
  -16.8430  -22.4580   -6.4970 C   0  0  0  0  0  0  0  0  0  0  0  0
  -19.9980  -23.0260   -6.0520 O   0  0  0  0  0  0  0  0  0  0  0  0
  -17.9220  -23.3750   -6.5870 C   0  0  0  0  0  0  0  0  0  0  0  0
  -14.7120  -23.6270   -7.4970 C   0  0  0  0  0  0  0  0  0  0  0  0
  -18.7010  -24.7530   -8.3800 N   0  0  0  0  0  0  0  0  0  0  0  0
  -15.5950  -24.6770   -8.2000 C   0  0  0  0  0  0  0  0  0  0  0  0
  -17.8240  -24.3990   -7.6380 C   0  0  0  0  0  0  0  0  0  0  0  0
  -19.3250  -22.6530   -7.0420 C   0  0  0  0  0  0  0  0  0  0  0  0
  -18.0750  -25.3460   -9.2830 N   0  0  0  0  0  0  0  0  0  0  0  0
  -16.7310  -24.9690   -7.9910 C   0  0  0  0  0  0  0  0  0  0  0  0
  -15.4100  -22.3390   -6.8350 C   0  0  0  0  0  0  0  0  0  0  0  0
  4  9  1  0
  4  2  1  0
  5 12  1  0
  6  8  2  0
  7 11  1  0
  7  5  1  0
  8  4  1  0
  9  3  1  0
 10  1  1  0
 10  6  1  0
 11  1  1  0
 11  8  1  0
 12  2  2  0
M  END
$$$$

     RDKit          3D

 13 13  0  0  0  0  0  0  0  0999 V2000
  -19.3260  -21.6500   -5.5010 C   0  0  0  0  0  0  0  0  0  0  0  0
  -17.7860  -23.4890   -6.1690 C   0  0  0  0  0  0  0  0  0  0  0  0
  -18.3450  -22.4720   -6.2330 C   0  0  0  0  0  0  0  0  0  0  0  0
  -16.3720  -24.6910   -7.9790 C   0  0  0  0  0  0  0  0  0  0  0  0
  -17.1240  -22.0160   -6.5000 C   0  0  0  0  0  0  0  0  0  0  0  0
  -17.6220  -24.2100   -7.4290 C   0  0  0  0  0  0  0  0  0  0  0  0
  -17.4340  -25.8230   -9.6160 C   0  0  0  0  0  0  0  0  0  0  0  0
  -20.4910  -21.6700   -5.5200 O   0  0  0  0  0  0  0  0  0  0  0  0
  -18.6620  -24.3600   -8.2660 C   0  0  0  0  0  0  0  0  0  0  0  0
  -16.3210  -25.7030   -8.9650 C   0  0  0  0  0  0  0  0  0  0  0  0
  -18.7370  -21.4290   -4.2490 O   0  0  0  0  0  0  0  0  0  0  0  0
  -15.3350  -24.2580   -7.5170 F   0  0  0  0  0  0  0  0  0  0  0  0
  -18.6860  -25.1560   -9.3940 C   0  0  0  0  0  0  0  0  0  0  0  0
  1 11  1  0
  3  2  1  0
  3  1  1  0
  4 12  1  0
  4  6  1  0
  5  3  2  0
  6  2  1  0
  7 13  1  0
  7 10  1  0
  8  1  2  0
  9  6  1  0
 10  4  1  0
 13  9  1  0
M  END
$$$$

     RDKit          3D

  5  4  0  0  0  0  0  0  0  0999 V2000
  -16.9110  -23.9940   -6.6600 O   0  0  0  0  0  0  0  0  0  0  0  0
  -18.8530  -23.1450   -8.2280 S   0  0  0  0  0  0  0  0  0  0  0  0
  -17.4270  -22.7210   -7.1440 C   0  0  0  0  0  0  0  0  0  0  0  0
  -15.6560  -24.0210   -7.1630 C   0  0  0  0  0  0  0  0  0  0  0  0
  -14.5920  -23.0920   -6.4790 C   0  0  0  0  0  0  0  0  0  0  0  0
  2  3  1  0
  3  1  1  0
  4  1  1  0
  4  5  1  0
M  END
$$$$

     RDKit          3D

 17 19  0  0  0  0  0  0  0  0999 V2000
  -15.5710  -25.4910   -8.4280 C   0  0  0  0  0  0  0  0  0  0  0  0
  -20.6700  -21.1190   -5.4240 N   0  0  0  0  0  0  0  0  0  0  0  0
  -18.6370  -23.6070   -7.7870 N   0  0  0  0  0  0  0  0  0  0  0  0
  -18.2510  -25.4900   -9.1970 C   0  0  0  0  0  0  0  0  0  0  0  0
  -19.7950  -20.3850   -4.9350 N   0  0  0  0  0  0  0  0  0  0  0  0
  -16.1230  -26.4500   -9.2200 C   0  0  0  0  0  0  0  0  0  0  0  0
  -19.8370  -19.2830   -3.8800 C   0  0  0  0  0  0  0  0  0  0  0  0
  -20.2260  -21.9610   -6.2220 N   0  0  0  0  0  0  0  0  0  0  0  0
  -16.7590  -22.4680   -6.8350 C   0  0  0  0  0  0  0  0  0  0  0  0
  -16.4490  -24.4900   -7.9980 C   0  0  0  0  0  0  0  0  0  0  0  0
  -18.6670  -19.1830   -2.9460 C   0  0  0  0  0  0  0  0  0  0  0  0
  -15.9040  -23.4540   -7.3560 O   0  0  0  0  0  0  0  0  0  0  0  0
  -18.0680  -22.7130   -6.9510 C   0  0  0  0  0  0  0  0  0  0  0  0
  -17.7610  -24.5190   -8.3630 C   0  0  0  0  0  0  0  0  0  0  0  0
  -18.7590  -21.0220   -5.2370 C   0  0  0  0  0  0  0  0  0  0  0  0
  -17.4650  -26.4430   -9.7140 C   0  0  0  0  0  0  0  0  0  0  0  0
  -18.9240  -21.8460   -6.1390 C   0  0  0  0  0  0  0  0  0  0  0  0
  1 10  2  0
  2  5  1  0
  3 13  2  0
  4 14  1  0
  5  7  1  0
  6  1  1  0
  7 11  1  0
  8 17  2  0
  8  2  1  0
 10 12  1  0
 12  9  1  0
 13  9  1  0
 13 17  1  0
 14 10  1  0
 14  3  2  0
 15  5  1  0
 16  6  1  0
 16  4  2  0
 17 15  1  0
M  END
$$$$

     RDKit          3D

  5  4  0  0  0  0  0  0  0  0999 V2000
  -15.8310  -23.6360   -6.5810 C   0  0  0  0  0  0  0  0  0  0  0  0
  -14.1200  -24.5560   -8.7630 O   0  0  0  0  0  0  0  0  0  0  0  0
  -15.4520  -24.4540   -9.1270 C   0  0  0  0  0  0  0  0  0  0  0  0
  -16.1690  -23.3880   -8.0690 C   0  0  0  0  0  0  0  0  0  0  0  0
  -17.0120  -23.6680   -5.8080 O   0  0  0  0  0  0  0  0  0  0  0  0
  1  5  1  0
  3  2  1  0
  3  4  1  0
  4  1  1  0
M  END
$$$$

     RDKit          3D

  7  7  0  0  0  0  0  0  0  0999 V2000
  -18.4550  -23.8160   -7.4940 C   0  0  0  0  0  0  0  0  0  0  0  0
  -17.3040  -22.2540   -6.8420 C   0  0  0  0  0  0  0  0  0  0  0  0
  -17.6020  -24.2250   -8.0260 C   0  0  0  0  0  0  0  0  0  0  0  0
  -16.0710  -23.9940   -7.9700 C   0  0  0  0  0  0  0  0  0  0  0  0
  -16.1000  -23.1600   -6.4790 C   0  0  0  0  0  0  0  0  0  0  0  0
  -14.6800  -22.8130   -6.8350 O   0  0  0  0  0  0  0  0  0  0  0  0
  -18.2460  -23.0440   -6.3850 O   0  0  0  0  0  0  0  0  0  0  0  0
  1  7  1  0
  2  5  1  0
  2  7  1  0
  3  4  1  0
  3  1  2  0
  4  5  1  0
  5  6  1  0
M  END
$$$$

     RDKit          3D

 12 13  0  0  0  0  0  0  0  0999 V2000
  -20.0720  -23.1110   -8.4940 S   0  0  0  0  0  0  0  0  0  0  0  0
  -20.8630  -21.8240   -6.6940 N   0  0  0  0  0  0  0  0  0  0  0  0
  -16.3390  -25.0630   -8.3410 C   0  0  0  0  0  0  0  0  0  0  0  0
  -14.9790  -23.8360   -6.7160 C   0  0  0  0  0  0  0  0  0  0  0  0
  -14.0250  -23.0060   -6.2580 C   0  0  0  0  0  0  0  0  0  0  0  0
  -17.6600  -23.4420   -7.3690 C   0  0  0  0  0  0  0  0  0  0  0  0
  -18.5910  -22.5750   -6.6730 N   0  0  0  0  0  0  0  0  0  0  0  0
  -15.1000  -25.8480   -8.6370 C   0  0  0  0  0  0  0  0  0  0  0  0
  -18.4620  -24.0870   -8.4020 C   0  0  0  0  0  0  0  0  0  0  0  0
  -17.6220  -25.0920   -8.9770 C   0  0  0  0  0  0  0  0  0  0  0  0
  -16.2760  -23.9580   -7.2700 C   0  0  0  0  0  0  0  0  0  0  0  0
  -19.8330  -22.5000   -7.3060 C   0  0  0  0  0  0  0  0  0  0  0  0
  1  9  1  0
  1 12  1  0
  3 11  2  0
  4  5  2  0
  6 11  1  0
  6  7  2  0
  8  3  1  0
  9  6  1  0
 10  9  2  0
 10  3  1  0
 11  4  1  0
 12  2  1  0
 12  7  2  0
M  END
$$$$

     RDKit          3D

 11 12  0  0  0  0  0  0  0  0999 V2000
  -18.6210  -23.5260   -7.1400 C   0  0  0  0  0  0  0  0  0  0  0  0
  -16.3680  -23.5890   -6.1290 C   0  0  0  0  0  0  0  0  0  0  0  0
  -15.9050  -25.4490   -8.8220 N   0  0  0  0  0  0  0  0  0  0  0  0
  -18.3580  -22.4550   -5.0260 C   0  0  0  0  0  0  0  0  0  0  0  0
  -19.2060  -22.8520   -6.2720 C   0  0  0  0  0  0  0  0  0  0  0  0
  -17.0440  -25.8270   -9.3680 C   0  0  0  0  0  0  0  0  0  0  0  0
  -18.0600  -24.9890   -8.9300 C   0  0  0  0  0  0  0  0  0  0  0  0
  -15.3510  -23.8900   -6.9580 C   0  0  0  0  0  0  0  0  0  0  0  0
  -16.1890  -24.6060   -7.8530 C   0  0  0  0  0  0  0  0  0  0  0  0
  -17.2920  -23.1520   -5.6610 C   0  0  0  0  0  0  0  0  0  0  0  0
  -17.5670  -24.2880   -7.8020 C   0  0  0  0  0  0  0  0  0  0  0  0
  1  5  2  0
  2 10  3  0
  3  9  2  0
  5  4  1  0
  6  7  1  0
  6  3  1  0
  7 11  1  0
  8  2  1  0
  9 11  1  0
  9  8  1  0
 10  4  1  0
 11  1  2  0
M  END
$$$$

     RDKit          3D

 28 30  0  0  0  0  0  0  0  0999 V2000
  -15.5470  -24.4460   -8.3680 C   0  0  0  0  0  0  0  0  0  0  0  0
  -18.8640  -24.8690   -9.5490 C   0  0  0  0  0  0  0  0  0  0  0  0
  -26.1550  -20.5430   -7.3860 N   0  0  0  0  0  0  0  0  0  0  0  0
  -10.3420  -26.1670   -6.7380 O   0  0  0  0  0  0  0  0  0  0  0  0
  -10.8650  -25.0810   -7.2620 C   0  0  0  0  0  0  0  0  0  0  0  0
  -21.6150  -20.8210   -6.7550 C   0  0  0  0  0  0  0  0  0  0  0  0
  -19.6190  -22.4130   -6.4770 C   0  0  0  0  0  0  0  0  0  0  0  0
  -15.3350  -22.8260   -6.4740 C   0  0  0  0  0  0  0  0  0  0  0  0
  -14.3420  -25.6130   -8.1550 C   0  0  0  0  0  0  0  0  0  0  0  0
  -23.8480  -21.0340   -6.9910 C   0  0  0  0  0  0  0  0  0  0  0  0
  -17.5490  -22.7260   -5.1780 C   0  0  0  0  0  0  0  0  0  0  0  0
  -10.7380  -25.0030   -8.7050 C   0  0  0  0  0  0  0  0  0  0  0  0
  -20.1610  -20.9900   -6.5940 C   0  0  0  0  0  0  0  0  0  0  0  0
  -25.1960  -21.5500   -7.0720 C   0  0  0  0  0  0  0  0  0  0  0  0
  -17.4150  -26.8180   -8.9800 C   0  0  0  0  0  0  0  0  0  0  0  0
  -16.2720  -24.7420   -9.2820 C   0  0  0  0  0  0  0  0  0  0  0  0
  -18.1570  -22.4040   -6.4600 N   0  0  0  0  0  0  0  0  0  0  0  0
  -23.4800  -19.8320   -6.5410 N   0  0  0  0  0  0  0  0  0  0  0  0
  -13.7070  -24.3730   -8.7320 S   0  0  0  0  0  0  0  0  0  0  0  0
  -16.0460  -22.4550   -5.1730 C   0  0  0  0  0  0  0  0  0  0  0  0
  -22.6270  -21.6830   -7.1000 C   0  0  0  0  0  0  0  0  0  0  0  0
  -16.2970  -23.5390   -7.4610 C   0  0  0  0  0  0  0  0  0  0  0  0
  -22.1830  -19.6810   -6.5480 N   0  0  0  0  0  0  0  0  0  0  0  0
  -20.1180  -24.9600   -9.3430 O   0  0  0  0  0  0  0  0  0  0  0  0
  -11.4350  -24.2910   -6.4020 N   0  0  0  0  0  0  0  0  0  0  0  0
  -17.6800  -23.3630   -7.3720 C   0  0  0  0  0  0  0  0  0  0  0  0
  -12.0590  -24.5610   -9.2450 C   0  0  0  0  0  0  0  0  0  0  0  0
  -17.5890  -25.4610   -9.4000 C   0  0  0  0  0  0  0  0  0  0  0  0
  1 16  1  0
  1  9  1  0
  1 22  1  0
  2 28  1  0
  2 24  2  0
  3 14  1  0
  5  4  2  0
  5 25  1  0
  6 13  1  0
  6 23  2  0
  7 17  1  0
  8 20  1  0
 10 18  2  0
 11 20  1  0
 12  5  1  0
 13  7  1  0
 14 10  1  0
 17 11  1  0
 19 27  1  0
 19  1  1  0
 19  9  1  0
 21 10  1  0
 21  6  1  0
 22 26  2  0
 22  8  1  0
 23 18  1  0
 26 17  1  0
 27 12  1  0
 28 16  1  0
 28 15  1  0
M  END
$$$$

     RDKit          3D

 29 31  0  0  0  0  0  0  0  0999 V2000
  -23.3610  -21.0620   -7.4350 N   0  0  0  0  0  0  0  0  0  0  0  0
  -20.6480  -22.7240   -7.6310 C   0  0  0  0  0  0  0  0  0  0  0  0
  -14.4860  -24.4330   -7.4650 C   0  0  0  0  0  0  0  0  0  0  0  0
  -12.6130  -26.5410   -7.9160 C   0  0  0  0  0  0  0  0  0  0  0  0
  -18.5190  -24.7670   -8.5590 C   0  0  0  0  0  0  0  0  0  0  0  0
  -14.1160  -20.5310   -4.2340 O   0  0  0  0  0  0  0  0  0  0  0  0
  -14.8010  -22.4600   -6.2270 N   0  0  0  0  0  0  0  0  0  0  0  0
  -17.3450  -25.2400   -9.1600 C   0  0  0  0  0  0  0  0  0  0  0  0
  -13.5290  -22.5690   -5.4960 C   0  0  0  0  0  0  0  0  0  0  0  0
  -15.5050  -23.3620   -7.1200 C   0  0  0  0  0  0  0  0  0  0  0  0
  -18.1690  -23.5570   -7.6870 N   0  0  0  0  0  0  0  0  0  0  0  0
  -13.1400  -21.4100   -4.7240 C   0  0  0  0  0  0  0  0  0  0  0  0
  -15.4590  -20.6880   -4.6780 C   0  0  0  0  0  0  0  0  0  0  0  0
  -24.5770  -21.3950   -7.5780 C   0  0  0  0  0  0  0  0  0  0  0  0
  -24.4710  -19.7370   -7.9340 C   0  0  0  0  0  0  0  0  0  0  0  0
  -11.7770  -27.6720   -8.1110 C   0  0  0  0  0  0  0  0  0  0  0  0
  -16.6830  -23.1080   -7.6840 C   0  0  0  0  0  0  0  0  0  0  0  0
  -12.2200  -25.3080   -7.4470 C   0  0  0  0  0  0  0  0  0  0  0  0
  -16.2910  -26.0280   -8.5870 C   0  0  0  0  0  0  0  0  0  0  0  0
  -13.9200  -26.6050   -8.1970 C   0  0  0  0  0  0  0  0  0  0  0  0
  -19.6130  -25.2600   -8.7970 O   0  0  0  0  0  0  0  0  0  0  0  0
  -15.4960  -21.2470   -6.1210 C   0  0  0  0  0  0  0  0  0  0  0  0
  -21.2640  -21.6860   -6.9270 C   0  0  0  0  0  0  0  0  0  0  0  0
  -19.1960  -22.4330   -7.8020 C   0  0  0  0  0  0  0  0  0  0  0  0
  -14.8820  -25.6740   -8.1240 C   0  0  0  0  0  0  0  0  0  0  0  0
  -25.4440  -21.4280   -8.2780 C   0  0  0  0  0  0  0  0  0  0  0  0
  -13.1930  -24.3290   -7.2830 C   0  0  0  0  0  0  0  0  0  0  0  0
  -22.5700  -21.7310   -6.8590 N   0  0  0  0  0  0  0  0  0  0  0  0
  -20.6640  -20.8200   -6.3850 O   0  0  0  0  0  0  0  0  0  0  0  0
  1 28  2  3
  2 23  1  0
  3 27  1  0
  3 10  1  0
  4 18  1  0
  5 11  1  0
  7 22  1  0
  7  9  1  0
  8 19  1  0
  8  5  1  0
  9 12  1  0
 10 17  1  0
 10  7  1  0
 11 17  1  0
 12  6  1  0
 13  6  1  0
 14  1  1  0
 15 14  1  0
 16  4  1  0
 18 27  2  0
 19 25  1  0
 20 25  1  0
 20  4  2  0
 21  5  2  0
 22 13  1  0
 23 28  1  0
 23 29  2  0
 24 11  1  0
 24  2  1  0
 25  3  2  0
 26 14  1  0
M  END
$$$$

     RDKit          3D

  3  2  0  0  0  0  0  0  0  0999 V2000
  -18.5690  -24.5860   -8.5410 O   0  0  0  0  0  0  0  0  0  0  0  0
  -18.5930  -23.2090   -8.5020 C   0  0  0  0  0  0  0  0  0  0  0  0
  -18.6060  -22.8280   -6.7990 Cl  0  0  0  0  0  0  0  0  0  0  0  0
  1  2  1  0
  2  3  1  0
M  END
$$$$

     RDKit          3D

 13 14  0  0  0  0  0  0  0  0999 V2000
  -20.0380  -25.2510   -9.1680 N   0  0  0  0  0  0  0  0  0  0  0  0
  -20.0200  -23.3440   -7.8690 N   0  0  0  0  0  0  0  0  0  0  0  0
  -17.9300  -24.4390   -8.2230 C   0  0  0  0  0  0  0  0  0  0  0  0
  -18.7250  -25.3670   -9.0100 C   0  0  0  0  0  0  0  0  0  0  0  0
  -16.5430  -24.1410   -7.8810 C   0  0  0  0  0  0  0  0  0  0  0  0
  -18.7220  -23.4300   -7.6840 C   0  0  0  0  0  0  0  0  0  0  0  0
  -15.6880  -24.8160   -8.5750 C   0  0  0  0  0  0  0  0  0  0  0  0
  -14.4150  -24.5780   -8.3080 C   0  0  0  0  0  0  0  0  0  0  0  0
  -16.5250  -23.4540   -6.8140 C   0  0  0  0  0  0  0  0  0  0  0  0
  -20.7220  -24.2670   -8.5790 C   0  0  0  0  0  0  0  0  0  0  0  0
  -17.8260  -22.6610   -6.7960 N   0  0  0  0  0  0  0  0  0  0  0  0
  -14.3050  -23.6670   -7.3050 C   0  0  0  0  0  0  0  0  0  0  0  0
  -15.5450  -23.5680   -7.0830 N   0  0  0  0  0  0  0  0  0  0  0  0
  1  4  2  0
  1 10  1  0
  2  6  2  0
  3  6  1  0
  4  3  1  0
  5  9  1  0
  6 11  1  0
  7  8  1  0
  7  5  1  0
  8 12  1  0
  9 11  1  0
 10  2  1  0
 12 13  1  0
 13  9  1  0
M  END
$$$$

     RDKit          3D

  9 10  0  0  0  0  0  0  0  0999 V2000
  -18.0060  -21.9170   -7.3210 C   0  0  0  0  0  0  0  0  0  0  0  0
  -18.8320  -23.7050   -8.8670 C   0  0  0  0  0  0  0  0  0  0  0  0
  -15.7480  -23.1420   -7.6800 N   0  0  0  0  0  0  0  0  0  0  0  0
  -16.4950  -24.3000   -8.8470 N   0  0  0  0  0  0  0  0  0  0  0  0
  -17.0760  -22.7410   -7.7500 C   0  0  0  0  0  0  0  0  0  0  0  0
  -19.7830  -22.8640   -8.5140 N   0  0  0  0  0  0  0  0  0  0  0  0
  -19.3140  -21.9020   -7.6440 C   0  0  0  0  0  0  0  0  0  0  0  0
  -17.4670  -23.5870   -8.5080 C   0  0  0  0  0  0  0  0  0  0  0  0
  -15.2880  -23.9960   -8.2890 C   0  0  0  0  0  0  0  0  0  0  0  0
  2  6  2  0
  2  8  1  0
  4  8  2  0
  4  9  1  0
  5  3  2  0
  5  1  1  0
  6  7  1  0
  7  1  2  0
  8  5  1  0
  9  3  1  0
M  END
$$$$

     RDKit          3D

 19 21  0  0  0  0  0  0  0  0999 V2000
  -15.6590  -22.4020   -4.2980 C   0  0  0  0  0  0  0  0  0  0  0  0
  -19.2860  -25.4730   -9.2860 N   0  0  0  0  0  0  0  0  0  0  0  0
  -14.7910  -23.9560   -7.4680 C   0  0  0  0  0  0  0  0  0  0  0  0
  -15.7040  -23.0760   -5.5270 C   0  0  0  0  0  0  0  0  0  0  0  0
  -18.9690  -23.8030   -7.9650 N   0  0  0  0  0  0  0  0  0  0  0  0
  -14.4720  -22.2280   -3.6050 C   0  0  0  0  0  0  0  0  0  0  0  0
  -13.2790  -22.7850   -4.0890 C   0  0  0  0  0  0  0  0  0  0  0  0
  -21.2400  -22.6610   -7.7360 C   0  0  0  0  0  0  0  0  0  0  0  0
  -18.4040  -24.7530   -8.6160 C   0  0  0  0  0  0  0  0  0  0  0  0
  -20.3270  -23.7540   -8.3330 C   0  0  0  0  0  0  0  0  0  0  0  0
  -16.1140  -24.2320   -7.5340 N   0  0  0  0  0  0  0  0  0  0  0  0
  -16.3690  -25.8670   -9.2380 O   0  0  0  0  0  0  0  0  0  0  0  0
  -13.9710  -24.3820   -8.4540 O   0  0  0  0  0  0  0  0  0  0  0  0
  -13.1360  -22.8920   -5.6040 C   0  0  0  0  0  0  0  0  0  0  0  0
  -16.5700  -23.4790   -6.4520 N   0  0  0  0  0  0  0  0  0  0  0  0
  -16.8640  -25.0010   -8.4630 C   0  0  0  0  0  0  0  0  0  0  0  0
  -14.4260  -23.3060   -6.2190 C   0  0  0  0  0  0  0  0  0  0  0  0
  -21.8400  -21.8460   -7.2500 C   0  0  0  0  0  0  0  0  0  0  0  0
  -20.4920  -24.8980   -9.1700 N   0  0  0  0  0  0  0  0  0  0  0  0
  1  6  2  0
  2 19  1  0
  2  9  2  0
  3 17  1  0
  4  1  1  0
  7  6  1  0
  8 18  3  0
  9 16  1  0
  9  5  2  0
 10  5  2  0
 10  8  1  0
 11  3  1  0
 11 15  1  0
 12 16  2  0
 13  3  2  0
 14  7  1  0
 15  4  2  0
 16 11  1  0
 17 14  1  0
 17  4  1  0
 19 10  2  0
M  END
$$$$

     RDKit          3D

 29 31  0  0  0  0  0  0  0  0999 V2000
  -11.7610  -23.9410   -9.0450 O   0  0  0  0  0  0  0  0  0  0  0  0
  -25.9090  -18.6810   -6.6340 C   0  0  0  0  0  0  0  0  0  0  0  0
  -12.7060  -27.1690   -7.8390 C   0  0  0  0  0  0  0  0  0  0  0  0
  -27.2840  -19.3510   -6.4100 C   0  0  0  0  0  0  0  0  0  0  0  0
  -17.9550  -25.3240   -9.7910 C   0  0  0  0  0  0  0  0  0  0  0  0
  -21.1340  -21.9730   -7.9990 C   0  0  0  0  0  0  0  0  0  0  0  0
  -20.6200  -24.4130   -9.2640 O   0  0  0  0  0  0  0  0  0  0  0  0
  -21.6170  -21.0170   -7.0140 C   0  0  0  0  0  0  0  0  0  0  0  0
  -19.1720  -22.2620   -6.7400 C   0  0  0  0  0  0  0  0  0  0  0  0
  -19.7160  -23.9020   -8.6850 C   0  0  0  0  0  0  0  0  0  0  0  0
  -11.1240  -25.3830   -6.8470 C   0  0  0  0  0  0  0  0  0  0  0  0
  -10.9420  -26.5670   -6.1300 C   0  0  0  0  0  0  0  0  0  0  0  0
  -15.0010  -25.5860   -9.7340 C   0  0  0  0  0  0  0  0  0  0  0  0
  -13.0230  -25.8690   -8.2370 N   0  0  0  0  0  0  0  0  0  0  0  0
  -16.4840  -24.8720   -8.0330 C   0  0  0  0  0  0  0  0  0  0  0  0
  -14.9160  -24.6770   -7.5350 S   0  0  0  0  0  0  0  0  0  0  0  0
  -20.0190  -22.6980   -7.7770 C   0  0  0  0  0  0  0  0  0  0  0  0
  -18.5850  -24.5150   -8.7810 N   0  0  0  0  0  0  0  0  0  0  0  0
  -21.0310  -21.0160   -5.8050 C   0  0  0  0  0  0  0  0  0  0  0  0
  -14.2020  -25.4110   -8.6820 C   0  0  0  0  0  0  0  0  0  0  0  0
  -19.7170  -21.4970   -5.7640 C   0  0  0  0  0  0  0  0  0  0  0  0
  -23.5390  -19.4870   -6.4920 C   0  0  0  0  0  0  0  0  0  0  0  0
  -11.3730  -27.5430   -7.1970 C   0  0  0  0  0  0  0  0  0  0  0  0
  -22.6360  -20.2260   -7.3830 O   0  0  0  0  0  0  0  0  0  0  0  0
   -9.6630  -25.0250   -7.4800 C   0  0  0  0  0  0  0  0  0  0  0  0
  -16.5630  -25.6230   -9.1840 C   0  0  0  0  0  0  0  0  0  0  0  0
  -25.5510  -18.2040   -5.3120 O   0  0  0  0  0  0  0  0  0  0  0  0
  -12.0190  -24.9140   -8.0220 C   0  0  0  0  0  0  0  0  0  0  0  0
  -24.9250  -19.8200   -6.9920 C   0  0  0  0  0  0  0  0  0  0  0  0
  1 28  2  0
  2  4  1  0
  2 27  1  0
  3 23  1  0
  5 18  1  0
  6 17  2  0
  6  8  1  0
  7 10  2  0
  8 19  2  0
  9 21  2  0
 10 17  1  0
 11 25  1  0
 11 12  1  0
 13 26  1  0
 14 28  1  0
 14  3  1  0
 15 16  1  0
 17  9  1  0
 18 10  1  0
 19 21  1  0
 20 13  1  0
 20 14  1  0
 20 16  1  0
 23 12  1  0
 24  8  1  0
 24 22  1  0
 26  5  1  0
 26 15  1  0
 28 11  1  0
 29  2  1  0
 29 22  1  0
M  END
$$$$

     RDKit          3D

 13 14  0  0  0  0  0  0  0  0999 V2000
  -16.0150  -25.7280   -8.6120 C   0  0  0  0  0  0  0  0  0  0  0  0
  -16.2370  -24.4930   -8.0480 C   0  0  0  0  0  0  0  0  0  0  0  0
  -19.8070  -23.9760   -9.0280 C   0  0  0  0  0  0  0  0  0  0  0  0
  -20.0380  -22.7410   -8.4230 C   0  0  0  0  0  0  0  0  0  0  0  0
  -17.8370  -22.6250   -7.6220 C   0  0  0  0  0  0  0  0  0  0  0  0
  -17.0180  -26.3830   -9.2740 C   0  0  0  0  0  0  0  0  0  0  0  0
  -17.5130  -23.9150   -8.1960 C   0  0  0  0  0  0  0  0  0  0  0  0
  -18.2780  -25.8150   -9.4620 C   0  0  0  0  0  0  0  0  0  0  0  0
  -15.8100  -21.5770   -6.3190 C   0  0  0  0  0  0  0  0  0  0  0  0
  -16.6990  -21.9310   -7.0310 N   0  0  0  0  0  0  0  0  0  0  0  0
  -14.7830  -20.9570   -5.4980 C   0  0  0  0  0  0  0  0  0  0  0  0
  -19.0910  -22.1340   -7.6830 N   0  0  0  0  0  0  0  0  0  0  0  0
  -18.5330  -24.5590   -8.8670 C   0  0  0  0  0  0  0  0  0  0  0  0
  1  2  1  0
  3 13  1  0
  3  4  2  0
  4 12  1  0
  5 10  1  0
  6  1  2  0
  7  2  2  0
  7  5  1  0
  8  6  1  0
  8 13  2  0
  9 11  1  0
 10  9  1  0
 12  5  2  0
 13  7  1  0
M  END
$$$$
